
  EPA STORM WATER MANAGEMENT MODEL - VERSION 5.2 (Build 5.2.4)
  ------------------------------------------------------------

  A site surface drainage model. 
  See Site_Drainage_Model.txt for more details. 
  
  ****************
  Analysis Options
  ****************
  Flow Units ............... CFS
  Process Models:
    Rainfall/Runoff ........ YES
    RDII ................... NO
    Snowmelt ............... NO
    Groundwater ............ NO
    Flow Routing ........... YES
    Ponding Allowed ........ NO
    Water Quality .......... YES
  Infiltration Method ...... HORTON
  Flow Routing Method ...... DYNWAVE
  Surcharge Method ......... EXTRAN
  Starting Date ............ 01/01/1998 00:00:00
  Ending Date .............. 01/01/1998 06:00:00
  Antecedent Dry Days ...... 5.0
  Report Time Step ......... 00:01:00
  Wet Time Step ............ 00:01:00
  Dry Time Step ............ 01:00:00
  Routing Time Step ........ 15.00 sec
  Variable Time Step ....... YES
  Maximum Trials ........... 8
  Number of Threads ........ 1
  Head Tolerance ........... 0.005000 ft
  
  
  **************************        Volume         Depth
  Runoff Quantity Continuity     acre-feet        inches
  **************************     ---------       -------
  Total Precipitation ......        23.690         9.830
  Evaporation Loss .........         0.000         0.000
  Infiltration Loss ........         0.888         0.369
  Surface Runoff ...........        21.799         9.045
  Final Storage ............         1.098         0.456
  Continuity Error (%) .....        -0.398
  
  
  **************************           TSS
  Runoff Quality Continuity            lbs
  **************************    ----------
  Initial Buildup ..........      1039.376
  Surface Buildup ..........         0.000
  Wet Deposition ...........         0.000
  Sweeping Removal .........         0.000
  Infiltration Loss ........         0.000
  BMP Removal ..............         0.000
  Surface Runoff ...........         0.000
  Remaining Buildup ........      1039.376
  Continuity Error (%) .....         0.000
  
  
  **************************        Volume        Volume
  Flow Routing Continuity        acre-feet      10^6 gal
  **************************     ---------     ---------
  Dry Weather Inflow .......         0.000         0.000
  Wet Weather Inflow .......        21.703         7.072
  Groundwater Inflow .......         0.000         0.000
  RDII Inflow ..............         0.000         0.000
  External Inflow ..........         0.000         0.000
  External Outflow .........         7.878         2.567
  Flooding Loss ............        16.205         5.281
  Evaporation Loss .........         0.000         0.000
  Exfiltration Loss ........         0.000         0.000
  Initial Stored Volume ....         0.000         0.000
  Final Stored Volume ......         0.630         0.205
  Continuity Error (%) .....       -13.866
  
  
  **************************           TSS
  Quality Routing Continuity           lbs
  **************************    ----------
  Dry Weather Inflow .......         0.000
  Wet Weather Inflow .......         0.000
  Groundwater Inflow .......         0.000
  RDII Inflow ..............         0.000
  External Inflow ..........         0.000
  External Outflow .........         0.000
  Flooding Loss ............         0.000
  Exfiltration Loss ........         0.000
  Mass Reacted .............         0.000
  Initial Stored Mass ......         0.000
  Final Stored Mass ........         0.000
  Continuity Error (%) .....         0.000
  
  
  *************************
  Highest Continuity Errors
  *************************
  Node J8 (-2303.23%)
  Node J9 (6.46%)
  Node J5 (5.33%)
  Node J6 (2.14%)
  Node J10 (1.34%)
  
  
  ***************************
  Time-Step Critical Elements
  ***************************
  Link C11 (97.40%)
  Link C3 (1.66%)
  
  
  ********************************
  Highest Flow Instability Indexes
  ********************************
  Link C4 (8)
  Link C1 (6)
  Link C5 (6)
  Link C9 (2)
  Link C3 (2)
  
  
  *********************************
  Most Frequent Nonconverging Nodes
  *********************************
  Node O1 (29.21%)
  Node J8 (28.48%)
  Node J5 (1.87%)
  Node J6 (0.73%)
  Node J7 (0.10%)
  
  
  *************************
  Routing Time Step Summary
  *************************
  Minimum Time Step           :     0.17 sec
  Average Time Step           :     3.74 sec
  Maximum Time Step           :    15.00 sec
  % of Time in Steady State   :     0.00
  Average Iterations per Step :     3.77
  % of Steps Not Converging   :    29.21
  Time Step Frequencies       :
     15.000 -  7.597 sec      :     2.61 %
      7.597 -  3.848 sec      :    30.87 %
      3.848 -  1.949 sec      :    65.90 %
      1.949 -  0.987 sec      :     0.21 %
      0.987 -  0.500 sec      :     0.42 %
  
  
  ***************************
  Subcatchment Runoff Summary
  ***************************
  
  ------------------------------------------------------------------------------------------------------------------------------
                            Total      Total      Total      Total     Imperv       Perv      Total       Total     Peak  Runoff
                           Precip      Runon       Evap      Infil     Runoff     Runoff     Runoff      Runoff   Runoff   Coeff
  Subcatchment                 in         in         in         in         in         in         in    10^6 gal      CFS
  ------------------------------------------------------------------------------------------------------------------------------
  S1                         9.83       0.00       0.00       0.37       5.52       3.53       9.05        1.12   152.32   0.921
  S2                         9.83       0.00       0.00       0.32       6.11       3.05       9.16        1.18   160.18   0.932
  S3                         9.83       0.00       0.00       0.52       3.85       4.95       8.80        0.89   123.64   0.895
  S4                         9.83       0.00       0.00       0.43       4.86       4.11       8.96        1.65   226.81   0.912
  S5                         9.83       0.00       0.00       0.11       8.49       1.04       9.53        1.24   164.91   0.969
  S6                         9.83       0.00       0.00       0.04       9.19       0.43       9.62        0.52    68.24   0.978
  S7                         9.83       0.00       0.00       0.86       0.00       7.95       7.95        0.50    69.72   0.809
  
  
  ****************************
  Subcatchment Washoff Summary
  ****************************
  
  ----------------------------------
                                 TSS
  Subcatchment                   lbs
  ----------------------------------
  S1                           0.000
  S2                           0.000
  S3                           0.000
  S4                           0.000
  S5                           0.000
  S6                           0.000
  S7                           0.000
  ----------------------------------
  System                       0.000
  
  
  ******************
  Node Depth Summary
  ******************
  
  ---------------------------------------------------------------------------------
                                 Average  Maximum  Maximum  Time of Max    Reported
                                   Depth    Depth      HGL   Occurrence   Max Depth
  Node                 Type         Feet     Feet     Feet  days hr:min        Feet
  ---------------------------------------------------------------------------------
  J1                   JUNCTION     1.16     2.15  4975.15     0  00:35        2.15
  J2                   JUNCTION     0.85     1.00  4970.00     0  00:25        1.00
  J3                   JUNCTION     1.56     2.25  4975.25     0  00:25        2.25
  J4                   JUNCTION     1.15     1.86  4972.86     0  00:33        1.85
  J5                   JUNCTION     1.96     3.00  4972.80     0  00:34        2.99
  J6                   JUNCTION     3.30     3.50    13.50     0  00:12        3.50
  J7                   JUNCTION     1.38     2.53  4974.03     0  00:35        2.52
  J8                   JUNCTION     0.01     0.03  4966.53     0  00:32        0.03
  J9                   JUNCTION     1.03     2.03  4966.83     0  00:32        2.03
  J10                  JUNCTION     2.01     3.00  4966.80     0  00:30        3.00
  J11                  JUNCTION     2.52     3.70  4966.70     0  00:31        3.68
  O1                   OUTFALL      2.51     3.69  4965.69     0  00:31        3.68
  
  
  *******************
  Node Inflow Summary
  *******************
  
  -------------------------------------------------------------------------------------------------
                                  Maximum  Maximum                  Lateral       Total        Flow
                                  Lateral    Total  Time of Max      Inflow      Inflow     Balance
                                   Inflow   Inflow   Occurrence      Volume      Volume       Error
  Node                 Type           CFS      CFS  days hr:min    10^6 gal    10^6 gal     Percent
  -------------------------------------------------------------------------------------------------
  J1                   JUNCTION   1.5e+02  1.5e+02     0  00:35        1.11        1.11       0.227
  J2                   JUNCTION   1.6e+02  1.6e+02     0  00:35        1.17        1.17       2.217
  J3                   JUNCTION   1.2e+02  1.2e+02     0  00:35        0.89        0.89       0.073
  J4                   JUNCTION         0       39     0  00:43           0       0.597       0.649
  J5                   JUNCTION         0  1.9e+02     0  00:35           0         1.7       5.632
  J6                   JUNCTION         0  1.2e+04     0  00:29           0        4.34       2.185
  J7                   JUNCTION   2.3e+02  2.3e+02     0  00:35        1.65        1.65       0.190
  J8                   JUNCTION         0      9.4     0  00:32           0      0.0451     -95.839
  J9                   JUNCTION         0       21     0  00:31           0      0.0969       6.908
  J10                  JUNCTION   2.3e+02  2.3e+02     0  00:35        1.73        1.78       1.353
  J11                  JUNCTION        68  1.9e+02     0  00:30       0.515        2.58       0.574
  O1                   OUTFALL          0  1.9e+02     0  00:31           0        2.57       0.000
  
  
  **********************
  Node Surcharge Summary
  **********************
  
  Surcharging occurs when water rises above the top of the highest conduit.
  ---------------------------------------------------------------------
                                               Max. Height   Min. Depth
                                   Hours       Above Crown    Below Rim
  Node                 Type      Surcharged           Feet         Feet
  ---------------------------------------------------------------------
  J2                   JUNCTION        0.33          0.000        0.000
  J3                   JUNCTION        0.30          0.000        0.000
  J6                   JUNCTION        0.80          0.000        0.000
  J10                  JUNCTION        0.14          0.000        0.000
  
  
  *********************
  Node Flooding Summary
  *********************
  
  Flooding refers to all water that overflows a node, whether it ponds or not.
  --------------------------------------------------------------------------
                                                             Total   Maximum
                                 Maximum   Time of Max       Flood    Ponded
                        Hours       Rate    Occurrence      Volume     Depth
  Node                 Flooded       CFS   days hr:min    10^6 gal      Feet
  --------------------------------------------------------------------------
  J2                      0.32   1.2e+02      0  00:35       0.419     0.000
  J3                      0.30        87      0  00:35       0.292     0.000
  J6                      0.80   6.3e+03      0  00:29       4.249     0.000
  J10                     0.13   1.5e+02      0  00:35       0.322     0.000
  
  
  ***********************
  Outfall Loading Summary
  ***********************
  
  -------------------------------------------------------------------------
                         Flow       Avg       Max       Total         Total
                         Freq      Flow      Flow      Volume           TSS
  Outfall Node           Pcnt       CFS       CFS    10^6 gal           lbs
  -------------------------------------------------------------------------
  O1                    99.69   1.1e+02   1.9e+02       2.567         0.000
  -------------------------------------------------------------------------
  System                99.69   1.1e+02   1.9e+02       2.567         0.000
  
  
  ********************
  Link Flow Summary
  ********************
  
  -----------------------------------------------------------------------------
                                 Maximum  Time of Max   Maximum    Max/    Max/
                                  |Flow|   Occurrence   |Veloc|    Full    Full
  Link                 Type          CFS  days hr:min    ft/sec    Flow   Depth
  -----------------------------------------------------------------------------
  C1                   CONDUIT   1.5e+02     0  00:35      3.38    0.46    0.86
  C2                   CONDUIT        43     0  00:35      3.65    0.97    0.97
  C3                   CONDUIT        39     0  00:43     12.23    1.15    0.91
  C4                   CONDUIT        41     0  00:36      1.57    0.17    0.81
  C5                   CONDUIT   1.6e+02     0  00:32      2.61    1.00    1.00
  C6                   CONDUIT   2.4e+02     0  00:01    >50.00    0.71    0.92
  C7                   CONDUIT   1.2e+04     0  00:29    >50.00   91.46    0.50
  C8                   CONDUIT       9.4     0  00:32      0.92    0.04    0.34
  C9                   CONDUIT        21     0  00:31      0.71    0.15    0.84
  C10                  CONDUIT   1.1e+02     0  00:38      1.76    0.56    1.00
  C11                  CONDUIT   1.9e+02     0  00:31     12.56    0.95    0.78
  
  
  ***************************
  Flow Classification Summary
  ***************************
  
  -------------------------------------------------------------------------------------
                      Adjusted    ---------- Fraction of Time in Flow Class ---------- 
                       /Actual         Up    Down  Sub   Sup   Up    Down  Norm  Inlet 
  Conduit               Length    Dry  Dry   Dry   Crit  Crit  Crit  Crit  Ltd   Ctrl  
  -------------------------------------------------------------------------------------
  C1                      1.00   0.00  0.00  0.00  1.00  0.00  0.00  0.00  0.91  0.00
  C2                      1.00   0.00  0.00  0.00  0.00  0.00  0.00  1.00  0.00  0.00
  C3                      1.00   0.00  0.00  0.00  0.06  0.94  0.00  0.00  0.00  0.00
  C4                      1.00   0.00  0.00  0.00  0.99  0.00  0.00  0.00  0.58  0.00
  C5                      1.00   0.00  0.00  0.00  1.00  0.00  0.00  0.00  1.00  0.00
  C6                      1.00   0.00  0.00  0.00  1.00  0.00  0.00  0.00  1.00  0.00
  C7                      1.00   0.00  0.00  1.00  0.00  0.00  0.00  0.00  0.00  0.00
  C8                      1.00   0.19  0.58  0.00  0.23  0.00  0.00  0.00  0.28  0.00
  C9                      1.00   0.00  0.19  0.00  0.81  0.00  0.00  0.00  0.00  0.00
  C10                     1.00   0.00  0.00  0.00  1.00  0.00  0.00  0.00  0.27  0.00
  C11                     1.00   0.00  0.00  0.00  0.02  0.98  0.00  0.00  0.39  0.00
  
  
  *************************
  Conduit Surcharge Summary
  *************************
  
  ----------------------------------------------------------------------------
                                                           Hours        Hours 
                         --------- Hours Full --------   Above Full   Capacity
  Conduit                Both Ends  Upstream  Dnstream   Normal Flow   Limited
  ----------------------------------------------------------------------------
  C2                          0.01      0.32      0.01      0.01         0.01
  C3                          0.01      0.30      0.01      0.33         0.01
  C5                          0.01      0.01      0.83      0.01         0.01
  C6                          0.01      0.01      0.83      0.01         0.01
  C7                          0.01      0.51      0.01      0.01         0.01
  C9                          0.01      0.01      0.13      0.01         0.01
  C10                         0.13      0.13      0.31      0.01         0.01
  
  
  ***************************
  Link Pollutant Load Summary
  ***************************
  
  ----------------------------------
                                 TSS
  Link                           lbs
  ----------------------------------
  C1                           0.000
  C2                           0.000
  C3                           0.000
  C4                           0.000
  C5                           0.000
  C6                           0.000
  C7                           0.000
  C8                           0.000
  C9                           0.000
  C10                          0.000
  C11                          0.000
  
  
  ********************************
  Subcatchment Time Series Results
  ********************************
  
  <<< Subcatchment S1 >>>
  -------------------------------------------------------------
  Date        Time        Precip.    Losses    Runoff       TSS
                            in/hr     in/hr       CFS      MG/L
  -------------------------------------------------------------
   01/01/1998 00:01:00      3.480     1.503    0.6296     0.000
   01/01/1998 00:02:00      3.480     1.503    3.1973     0.000
   01/01/1998 00:03:00      3.480     1.407    5.9882     0.000
   01/01/1998 00:04:00      3.480     1.272    7.6451     0.000
   01/01/1998 00:05:00      3.960     1.272    8.4471     0.000
   01/01/1998 00:06:00      3.960     1.041    9.5350     0.000
   01/01/1998 00:07:00      3.960     0.943   10.0000     0.000
   01/01/1998 00:08:00      3.960     0.855   10.1910     0.000
   01/01/1998 00:09:00      3.960     0.776   10.2682     0.000
   01/01/1998 00:10:00      4.560     0.776   10.2992     0.000
   01/01/1998 00:11:00      4.560     0.642   11.2616     0.000
   01/01/1998 00:12:00      4.560     0.585   11.6446     0.000
   01/01/1998 00:13:00      4.560     0.534   11.8069     0.000
   01/01/1998 00:14:00      4.560     0.488   12.0917     0.000
   01/01/1998 00:15:00      7.680     0.488   12.5181     0.000
   01/01/1998 00:16:00      7.680     0.409   18.9822     0.000
   01/01/1998 00:17:00      7.680     0.376   22.3043     0.000
   01/01/1998 00:18:00      7.680     0.347   24.4007     0.000
   01/01/1998 00:19:00      7.680     0.320   26.0387     0.000
   01/01/1998 00:20:00      9.720     0.320   27.4393     0.000
   01/01/1998 00:21:00      9.720     0.274   33.2323     0.000
   01/01/1998 00:22:00      9.720     0.255   36.0971     0.000
   01/01/1998 00:23:00      9.720     0.238   37.8900     0.000
   01/01/1998 00:24:00      9.720     0.222   39.2022     0.000
   01/01/1998 00:25:00     18.840     0.222   40.2227     0.000
   01/01/1998 00:26:00     18.840     0.196   64.0651     0.000
   01/01/1998 00:27:00     18.840     0.185   72.6585     0.000
   01/01/1998 00:28:00     18.840     0.174   76.8333     0.000
   01/01/1998 00:29:00     18.840     0.165   79.5060     0.000
   01/01/1998 00:30:00     34.200     0.165   81.3746     0.000
   01/01/1998 00:31:00     34.200     0.150  126.9829     0.000
   01/01/1998 00:32:00     34.200     0.143  140.0187     0.000
   01/01/1998 00:33:00     34.200     0.138  146.1796     0.000
   01/01/1998 00:34:00     34.200     0.132  149.9362     0.000
   01/01/1998 00:35:00     14.160     0.132  152.3223     0.000
   01/01/1998 00:36:00     14.160     0.123   95.4417     0.000
   01/01/1998 00:37:00     14.160     0.120   81.1145     0.000
   01/01/1998 00:38:00     14.160     0.116   74.9228     0.000
   01/01/1998 00:39:00     14.160     0.113   71.4639     0.000
   01/01/1998 00:40:00      8.520     0.113   69.2804     0.000
   01/01/1998 00:41:00      8.520     0.108   53.4746     0.000
   01/01/1998 00:42:00      8.520     0.106   47.6862     0.000
   01/01/1998 00:43:00      8.520     0.104   44.7800     0.000
   01/01/1998 00:44:00      8.520     0.102   43.0266     0.000
   01/01/1998 00:45:00      5.040     0.102   41.8533     0.000
   01/01/1998 00:46:00      5.040     0.099   33.1045     0.000
   01/01/1998 00:47:00      5.040     0.098   29.4224     0.000
   01/01/1998 00:48:00      5.040     0.096   27.4579     0.000
   01/01/1998 00:49:00      5.040     0.095   26.2403     0.000
   01/01/1998 00:50:00      4.200     0.095   25.4082     0.000
   01/01/1998 00:51:00      4.200     0.094   23.0805     0.000
   01/01/1998 00:52:00      4.200     0.093   21.8569     0.000
   01/01/1998 00:53:00      4.200     0.092   21.1113     0.000
   01/01/1998 00:54:00      4.200     0.092   20.6061     0.000
   01/01/1998 00:55:00      3.600     0.092   20.2387     0.000
   01/01/1998 00:56:00      3.600     0.091   18.7894     0.000
   01/01/1998 00:57:00      3.600     0.090   18.0226     0.000
   01/01/1998 00:58:00      3.600     0.090   17.5584     0.000
   01/01/1998 00:59:00      3.600     0.089   17.2459     0.000
   01/01/1998 01:00:00      2.400     0.089   17.0187     0.000
  
  
  <<< Subcatchment S2 >>>
  -------------------------------------------------------------
  Date        Time        Precip.    Losses    Runoff       TSS
                            in/hr     in/hr       CFS      MG/L
  -------------------------------------------------------------
   01/01/1998 00:01:00      3.480     1.288    0.6680     0.000
   01/01/1998 00:02:00      3.480     1.288    3.4327     0.000
   01/01/1998 00:03:00      3.480     1.205    6.5769     0.000
   01/01/1998 00:04:00      3.480     1.089    8.5669     0.000
   01/01/1998 00:05:00      3.960     1.089    9.5943     0.000
   01/01/1998 00:06:00      3.960     0.891   10.8902     0.000
   01/01/1998 00:07:00      3.960     0.808   11.4781     0.000
   01/01/1998 00:08:00      3.960     0.732   11.7341     0.000
   01/01/1998 00:09:00      3.960     0.665   11.8436     0.000
   01/01/1998 00:10:00      4.560     0.665   11.8902     0.000
   01/01/1998 00:11:00      4.560     0.550   12.9658     0.000
   01/01/1998 00:12:00      4.560     0.501   13.4192     0.000
   01/01/1998 00:13:00      4.560     0.457   13.6201     0.000
   01/01/1998 00:14:00      4.560     0.418   13.9322     0.000
   01/01/1998 00:15:00      7.680     0.418   14.3784     0.000
   01/01/1998 00:16:00      7.680     0.351   21.4679     0.000
   01/01/1998 00:17:00      7.680     0.322   25.1621     0.000
   01/01/1998 00:18:00      7.680     0.297   27.3960     0.000
   01/01/1998 00:19:00      7.680     0.274   29.0292     0.000
   01/01/1998 00:20:00      9.720     0.274   30.3484     0.000
   01/01/1998 00:21:00      9.720     0.235   36.4648     0.000
   01/01/1998 00:22:00      9.720     0.218   39.3975     0.000
   01/01/1998 00:23:00      9.720     0.204   41.1007     0.000
   01/01/1998 00:24:00      9.720     0.190   42.2604     0.000
   01/01/1998 00:25:00     18.840     0.190   43.1147     0.000
   01/01/1998 00:26:00     18.840     0.168   68.9704     0.000
   01/01/1998 00:27:00     18.840     0.158   78.2465     0.000
   01/01/1998 00:28:00     18.840     0.149   82.3416     0.000
   01/01/1998 00:29:00     18.840     0.142   84.7137     0.000
   01/01/1998 00:30:00     34.200     0.142   86.2627     0.000
   01/01/1998 00:31:00     34.200     0.128  135.8012     0.000
   01/01/1998 00:32:00     34.200     0.123  149.4961     0.000
   01/01/1998 00:33:00     34.200     0.118  155.1614     0.000
   01/01/1998 00:34:00     34.200     0.113  158.3080     0.000
   01/01/1998 00:35:00     14.160     0.113  160.1804     0.000
   01/01/1998 00:36:00     14.160     0.106   97.6752     0.000
   01/01/1998 00:37:00     14.160     0.102   82.1946     0.000
   01/01/1998 00:38:00     14.160     0.100   76.0039     0.000
   01/01/1998 00:39:00     14.160     0.097   72.8151     0.000
   01/01/1998 00:40:00      8.520     0.097   70.9239     0.000
   01/01/1998 00:41:00      8.520     0.092   54.1388     0.000
   01/01/1998 00:42:00      8.520     0.091   48.1448     0.000
   01/01/1998 00:43:00      8.520     0.089   45.3232     0.000
   01/01/1998 00:44:00      8.520     0.087   43.7366     0.000
   01/01/1998 00:45:00      5.040     0.087   42.7351     0.000
   01/01/1998 00:46:00      5.040     0.085   33.4721     0.000
   01/01/1998 00:47:00      5.040     0.084   29.6343     0.000
   01/01/1998 00:48:00      5.040     0.083   27.6809     0.000
   01/01/1998 00:49:00      5.040     0.082   26.5386     0.000
   01/01/1998 00:50:00      4.200     0.082   25.8002     0.000
   01/01/1998 00:51:00      4.200     0.080   23.4230     0.000
   01/01/1998 00:52:00      4.200     0.080   22.2078     0.000
   01/01/1998 00:53:00      4.200     0.079   21.5023     0.000
   01/01/1998 00:54:00      4.200     0.079   21.0494     0.000
   01/01/1998 00:55:00      3.600     0.079   20.7358     0.000
   01/01/1998 00:56:00      3.600     0.078   19.2400     0.000
   01/01/1998 00:57:00      3.600     0.077   18.4637     0.000
   01/01/1998 00:58:00      3.600     0.077   18.0133     0.000
   01/01/1998 00:59:00      3.600     0.077   17.7256     0.000
   01/01/1998 01:00:00      2.400     0.077   17.5271     0.000
  
  
  <<< Subcatchment S3 >>>
  -------------------------------------------------------------
  Date        Time        Precip.    Losses    Runoff       TSS
                            in/hr     in/hr       CFS      MG/L
  -------------------------------------------------------------
   01/01/1998 00:01:00      3.480     2.105    0.6034     0.000
   01/01/1998 00:02:00      3.480     2.105    2.8098     0.000
   01/01/1998 00:03:00      3.480     1.971    4.4140     0.000
   01/01/1998 00:04:00      3.480     1.781    4.9665     0.000
   01/01/1998 00:05:00      3.960     1.781    5.1249     0.000
   01/01/1998 00:06:00      3.960     1.458    5.6975     0.000
   01/01/1998 00:07:00      3.960     1.320    5.8481     0.000
   01/01/1998 00:08:00      3.960     1.197    5.8863     0.000
   01/01/1998 00:09:00      3.960     1.087    5.8959     0.000
   01/01/1998 00:10:00      4.560     1.087    5.8983     0.000
   01/01/1998 00:11:00      4.560     0.899    6.5780     0.000
   01/01/1998 00:12:00      4.560     0.819    6.7427     0.000
   01/01/1998 00:13:00      4.560     0.747    6.7978     0.000
   01/01/1998 00:14:00      4.560     0.683    7.0676     0.000
   01/01/1998 00:15:00      7.680     0.683    7.5325     0.000
   01/01/1998 00:16:00      7.680     0.573   12.5891     0.000
   01/01/1998 00:17:00      7.680     0.527   14.9270     0.000
   01/01/1998 00:18:00      7.680     0.485   16.7472     0.000
   01/01/1998 00:19:00      7.680     0.448   18.4298     0.000
   01/01/1998 00:20:00      9.720     0.448   19.9764     0.000
   01/01/1998 00:21:00      9.720     0.384   24.8487     0.000
   01/01/1998 00:22:00      9.720     0.357   27.2487     0.000
   01/01/1998 00:23:00      9.720     0.333   29.0130     0.000
   01/01/1998 00:24:00      9.720     0.311   30.4386     0.000
   01/01/1998 00:25:00     18.840     0.311   31.5928     0.000
   01/01/1998 00:26:00     18.840     0.274   49.9776     0.000
   01/01/1998 00:27:00     18.840     0.258   56.1494     0.000
   01/01/1998 00:28:00     18.840     0.244   60.1264     0.000
   01/01/1998 00:29:00     18.840     0.232   63.0465     0.000
   01/01/1998 00:30:00     34.200     0.232   65.1759     0.000
   01/01/1998 00:31:00     34.200     0.210   99.7506     0.000
   01/01/1998 00:32:00     34.200     0.201  110.1335     0.000
   01/01/1998 00:33:00     34.200     0.193  116.6162     0.000
   01/01/1998 00:34:00     34.200     0.185  120.8824     0.000
   01/01/1998 00:35:00     14.160     0.185  123.6371     0.000
   01/01/1998 00:36:00     14.160     0.173   81.0372     0.000
   01/01/1998 00:37:00     14.160     0.168   70.2918     0.000
   01/01/1998 00:38:00     14.160     0.163   64.5131     0.000
   01/01/1998 00:39:00     14.160     0.158   60.8382     0.000
   01/01/1998 00:40:00      8.520     0.158   58.3880     0.000
   01/01/1998 00:41:00      8.520     0.151   45.6282     0.000
   01/01/1998 00:42:00      8.520     0.148   41.0805     0.000
   01/01/1998 00:43:00      8.520     0.145   38.4215     0.000
   01/01/1998 00:44:00      8.520     0.143   36.6103     0.000
   01/01/1998 00:45:00      5.040     0.143   35.3179     0.000
   01/01/1998 00:46:00      5.040     0.139   28.1743     0.000
   01/01/1998 00:47:00      5.040     0.137   25.3467     0.000
   01/01/1998 00:48:00      5.040     0.135   23.6617     0.000
   01/01/1998 00:49:00      5.040     0.134   22.4842     0.000
   01/01/1998 00:50:00      4.200     0.134   21.6101     0.000
   01/01/1998 00:51:00      4.200     0.131   19.5741     0.000
   01/01/1998 00:52:00      4.200     0.130   18.5378     0.000
   01/01/1998 00:53:00      4.200     0.129   17.8514     0.000
   01/01/1998 00:54:00      4.200     0.128   17.3428     0.000
   01/01/1998 00:55:00      3.600     0.128   16.9490     0.000
   01/01/1998 00:56:00      3.600     0.127   15.7052     0.000
   01/01/1998 00:57:00      3.600     0.126   15.0855     0.000
   01/01/1998 00:58:00      3.600     0.126   14.6812     0.000
   01/01/1998 00:59:00      3.600     0.125   14.3804     0.000
   01/01/1998 01:00:00      2.400     0.125   14.1443     0.000
  
  
  <<< Subcatchment S4 >>>
  -------------------------------------------------------------
  Date        Time        Precip.    Losses    Runoff       TSS
                            in/hr     in/hr       CFS      MG/L
  -------------------------------------------------------------
   01/01/1998 00:01:00      3.480     1.743    1.0713     0.000
   01/01/1998 00:02:00      3.480     1.743    5.2250     0.000
   01/01/1998 00:03:00      3.480     1.632    9.0351     0.000
   01/01/1998 00:04:00      3.480     1.475   10.8241     0.000
   01/01/1998 00:05:00      3.960     1.475   11.5113     0.000
   01/01/1998 00:06:00      3.960     1.207   12.8418     0.000
   01/01/1998 00:07:00      3.960     1.093   13.3018     0.000
   01/01/1998 00:08:00      3.960     0.991   13.4549     0.000
   01/01/1998 00:09:00      3.960     0.900   13.5052     0.000
   01/01/1998 00:10:00      4.560     0.900   13.5216     0.000
   01/01/1998 00:11:00      4.560     0.744   14.9249     0.000
   01/01/1998 00:12:00      4.560     0.678   15.3768     0.000
   01/01/1998 00:13:00      4.560     0.619   15.5437     0.000
   01/01/1998 00:14:00      4.560     0.565   16.0039     0.000
   01/01/1998 00:15:00      7.680     0.565   16.7541     0.000
   01/01/1998 00:16:00      7.680     0.475   26.6136     0.000
   01/01/1998 00:17:00      7.680     0.436   31.3067     0.000
   01/01/1998 00:18:00      7.680     0.402   34.4800     0.000
   01/01/1998 00:19:00      7.680     0.371   37.1673     0.000
   01/01/1998 00:20:00      9.720     0.371   39.5485     0.000
   01/01/1998 00:21:00      9.720     0.318   48.5156     0.000
   01/01/1998 00:22:00      9.720     0.296   52.7619     0.000
   01/01/1998 00:23:00      9.720     0.276   55.5667     0.000
   01/01/1998 00:24:00      9.720     0.258   57.7092     0.000
   01/01/1998 00:25:00     18.840     0.258   59.4001     0.000
   01/01/1998 00:26:00     18.840     0.227   95.1766     0.000
   01/01/1998 00:27:00     18.840     0.214  106.9436     0.000
   01/01/1998 00:28:00     18.840     0.202  113.3041     0.000
   01/01/1998 00:29:00     18.840     0.192  117.6713     0.000
   01/01/1998 00:30:00     34.200     0.192  120.7728     0.000
   01/01/1998 00:31:00     34.200     0.174  188.3671     0.000
   01/01/1998 00:32:00     34.200     0.166  206.7712     0.000
   01/01/1998 00:33:00     34.200     0.160  216.6482     0.000
   01/01/1998 00:34:00     34.200     0.154  222.8806     0.000
   01/01/1998 00:35:00     14.160     0.154  226.8147     0.000
   01/01/1998 00:36:00     14.160     0.143  142.7073     0.000
   01/01/1998 00:37:00     14.160     0.139  122.6107     0.000
   01/01/1998 00:38:00     14.160     0.135  113.1925     0.000
   01/01/1998 00:39:00     14.160     0.131  107.5883     0.000
   01/01/1998 00:40:00      8.520     0.131  103.9575     0.000
   01/01/1998 00:41:00      8.520     0.125   80.0087     0.000
   01/01/1998 00:42:00      8.520     0.123   71.7403     0.000
   01/01/1998 00:43:00      8.520     0.120   67.4060     0.000
   01/01/1998 00:44:00      8.520     0.118   64.6493     0.000
   01/01/1998 00:45:00      5.040     0.118   62.7467     0.000
   01/01/1998 00:46:00      5.040     0.115   49.4155     0.000
   01/01/1998 00:47:00      5.040     0.113   44.1673     0.000
   01/01/1998 00:48:00      5.040     0.112   41.3097     0.000
   01/01/1998 00:49:00      5.040     0.111   39.4577     0.000
   01/01/1998 00:50:00      4.200     0.111   38.1431     0.000
   01/01/1998 00:51:00      4.200     0.109   34.5385     0.000
   01/01/1998 00:52:00      4.200     0.108   32.7311     0.000
   01/01/1998 00:53:00      4.200     0.107   31.6155     0.000
   01/01/1998 00:54:00      4.200     0.106   30.8354     0.000
   01/01/1998 00:55:00      3.600     0.106   30.2527     0.000
   01/01/1998 00:56:00      3.600     0.105   28.0141     0.000
   01/01/1998 00:57:00      3.600     0.105   26.8981     0.000
   01/01/1998 00:58:00      3.600     0.104   26.2194     0.000
   01/01/1998 00:59:00      3.600     0.104   25.7476     0.000
   01/01/1998 01:00:00      2.400     0.104   25.3934     0.000
  
  
  <<< Subcatchment S5 >>>
  -------------------------------------------------------------
  Date        Time        Precip.    Losses    Runoff       TSS
                            in/hr     in/hr       CFS      MG/L
  -------------------------------------------------------------
   01/01/1998 00:01:00      3.480     0.428    0.7086     0.000
   01/01/1998 00:02:00      3.480     0.428    3.7680     0.000
   01/01/1998 00:03:00      3.480     0.401    7.7055     0.000
   01/01/1998 00:04:00      3.480     0.362   10.6818     0.000
   01/01/1998 00:05:00      3.960     0.362   12.5297     0.000
   01/01/1998 00:06:00      3.960     0.296   14.5562     0.000
   01/01/1998 00:07:00      3.960     0.268   15.6480     0.000
   01/01/1998 00:08:00      3.960     0.243   16.2106     0.000
   01/01/1998 00:09:00      3.960     0.221   16.4943     0.000
   01/01/1998 00:10:00      4.560     0.221   16.6357     0.000
   01/01/1998 00:11:00      4.560     0.183   18.0069     0.000
   01/01/1998 00:12:00      4.560     0.166   18.6868     0.000
   01/01/1998 00:13:00      4.560     0.152   19.0311     0.000
   01/01/1998 00:14:00      4.560     0.139   19.4147     0.000
   01/01/1998 00:15:00      7.680     0.139   19.8371     0.000
   01/01/1998 00:16:00      7.680     0.117   28.0783     0.000
   01/01/1998 00:17:00      7.680     0.107   32.3664     0.000
   01/01/1998 00:18:00      7.680     0.099   34.4732     0.000
   01/01/1998 00:19:00      7.680     0.091   35.5174     0.000
   01/01/1998 00:20:00      9.720     0.091   36.0542     0.000
   01/01/1998 00:21:00      9.720     0.078   42.1649     0.000
   01/01/1998 00:22:00      9.720     0.073   44.7374     0.000
   01/01/1998 00:23:00      9.720     0.068   45.8023     0.000
   01/01/1998 00:24:00      9.720     0.063   46.2563     0.000
   01/01/1998 00:25:00     18.840     0.063   46.4622     0.000
   01/01/1998 00:26:00     18.840     0.056   75.5248     0.000
   01/01/1998 00:27:00     18.840     0.053   85.8935     0.000
   01/01/1998 00:28:00     18.840     0.050   89.1647     0.000
   01/01/1998 00:29:00     18.840     0.047   90.2095     0.000
   01/01/1998 00:30:00     34.200     0.047   90.5646     0.000
   01/01/1998 00:31:00     34.200     0.043  146.5552     0.000
   01/01/1998 00:32:00     34.200     0.041  160.6968     0.000
   01/01/1998 00:33:00     34.200     0.039  163.9142     0.000
   01/01/1998 00:34:00     34.200     0.038  164.7004     0.000
   01/01/1998 00:35:00     14.160     0.038  164.9144     0.000
   01/01/1998 00:36:00     14.160     0.035   92.6605     0.000
   01/01/1998 00:37:00     14.160     0.034   75.9026     0.000
   01/01/1998 00:38:00     14.160     0.033   70.8769     0.000
   01/01/1998 00:39:00     14.160     0.032   69.2057     0.000
   01/01/1998 00:40:00      8.520     0.032   68.6146     0.000
   01/01/1998 00:41:00      8.520     0.031   50.8209     0.000
   01/01/1998 00:42:00      8.520     0.030   44.8670     0.000
   01/01/1998 00:43:00      8.520     0.030   42.6114     0.000
   01/01/1998 00:44:00      8.520     0.029   41.7032     0.000
   01/01/1998 00:45:00      5.040     0.029   41.3227     0.000
   01/01/1998 00:46:00      5.040     0.028   31.5046     0.000
   01/01/1998 00:47:00      5.040     0.028   27.5721     0.000
   01/01/1998 00:48:00      5.040     0.027   25.8300     0.000
   01/01/1998 00:49:00      5.040     0.027   25.0159     0.000
   01/01/1998 00:50:00      4.200     0.027   24.6226     0.000
   01/01/1998 00:51:00      4.200     0.027   22.3411     0.000
   01/01/1998 00:52:00      4.200     0.026   21.2608     0.000
   01/01/1998 00:53:00      4.200     0.026   20.7290     0.000
   01/01/1998 00:54:00      4.200     0.026   20.4605     0.000
   01/01/1998 00:55:00      3.600     0.026   20.3223     0.000
   01/01/1998 00:56:00      3.600     0.026   18.8301     0.000
   01/01/1998 00:57:00      3.600     0.026   18.0868     0.000
   01/01/1998 00:58:00      3.600     0.026   17.7051     0.000
   01/01/1998 00:59:00      3.600     0.025   17.5050     0.000
   01/01/1998 01:00:00      2.400     0.025   17.3984     0.000
  
  
  <<< Subcatchment S6 >>>
  -------------------------------------------------------------
  Date        Time        Precip.    Losses    Runoff       TSS
                            in/hr     in/hr       CFS      MG/L
  -------------------------------------------------------------
   01/01/1998 00:01:00      3.480     0.174    0.2956     0.000
   01/01/1998 00:02:00      3.480     0.174    1.5839     0.000
   01/01/1998 00:03:00      3.480     0.163    3.2852     0.000
   01/01/1998 00:04:00      3.480     0.147    4.6203     0.000
   01/01/1998 00:05:00      3.960     0.147    5.4830     0.000
   01/01/1998 00:06:00      3.960     0.120    6.4129     0.000
   01/01/1998 00:07:00      3.960     0.109    6.9333     0.000
   01/01/1998 00:08:00      3.960     0.099    7.2116     0.000
   01/01/1998 00:09:00      3.960     0.090    7.3571     0.000
   01/01/1998 00:10:00      4.560     0.090    7.4322     0.000
   01/01/1998 00:11:00      4.560     0.074    8.0338     0.000
   01/01/1998 00:12:00      4.560     0.068    8.3427     0.000
   01/01/1998 00:13:00      4.560     0.062    8.5039     0.000
   01/01/1998 00:14:00      4.560     0.056    8.6638     0.000
   01/01/1998 00:15:00      7.680     0.056    8.7998     0.000
   01/01/1998 00:16:00      7.680     0.047   12.2166     0.000
   01/01/1998 00:17:00      7.680     0.044   13.9192     0.000
   01/01/1998 00:18:00      7.680     0.040   14.6846     0.000
   01/01/1998 00:19:00      7.680     0.037   15.0159     0.000
   01/01/1998 00:20:00      9.720     0.037   15.1585     0.000
   01/01/1998 00:21:00      9.720     0.032   17.6549     0.000
   01/01/1998 00:22:00      9.720     0.030   18.6872     0.000
   01/01/1998 00:23:00      9.720     0.028   19.0947     0.000
   01/01/1998 00:24:00      9.720     0.026   19.2538     0.000
   01/01/1998 00:25:00     18.840     0.026   19.3169     0.000
   01/01/1998 00:26:00     18.840     0.023   31.4369     0.000
   01/01/1998 00:27:00     18.840     0.021   35.7428     0.000
   01/01/1998 00:28:00     18.840     0.020   37.0461     0.000
   01/01/1998 00:29:00     18.840     0.019   37.4244     0.000
   01/01/1998 00:30:00     34.200     0.019   37.5338     0.000
   01/01/1998 00:31:00     34.200     0.017   60.8859     0.000
   01/01/1998 00:32:00     34.200     0.017   66.7081     0.000
   01/01/1998 00:33:00     34.200     0.016   67.9329     0.000
   01/01/1998 00:34:00     34.200     0.015   68.1860     0.000
   01/01/1998 00:35:00     14.160     0.015   68.2387     0.000
   01/01/1998 00:36:00     14.160     0.014   38.1013     0.000
   01/01/1998 00:37:00     14.160     0.014   31.1832     0.000
   01/01/1998 00:38:00     14.160     0.013   29.1734     0.000
   01/01/1998 00:39:00     14.160     0.013   28.5439     0.000
   01/01/1998 00:40:00      8.520     0.013   28.3422     0.000
   01/01/1998 00:41:00      8.520     0.012   20.9502     0.000
   01/01/1998 00:42:00      8.520     0.012   18.4884     0.000
   01/01/1998 00:43:00      8.520     0.012   17.5741     0.000
   01/01/1998 00:44:00      8.520     0.012   17.2196     0.000
   01/01/1998 00:45:00      5.040     0.012   17.0798     0.000
   01/01/1998 00:46:00      5.040     0.011   12.9996     0.000
   01/01/1998 00:47:00      5.040     0.011   11.3688     0.000
   01/01/1998 00:48:00      5.040     0.011   10.6551     0.000
   01/01/1998 00:49:00      5.040     0.011   10.3290     0.000
   01/01/1998 00:50:00      4.200     0.011   10.1769     0.000
   01/01/1998 00:51:00      4.200     0.011    9.2356     0.000
   01/01/1998 00:52:00      4.200     0.011    8.7917     0.000
   01/01/1998 00:53:00      4.200     0.011    8.5762     0.000
   01/01/1998 00:54:00      4.200     0.011    8.4699     0.000
   01/01/1998 00:55:00      3.600     0.011    8.4171     0.000
   01/01/1998 00:56:00      3.600     0.010    7.7989     0.000
   01/01/1998 00:57:00      3.600     0.010    7.4913     0.000
   01/01/1998 00:58:00      3.600     0.010    7.3348     0.000
   01/01/1998 00:59:00      3.600     0.010    7.2542     0.000
   01/01/1998 01:00:00      2.400     0.010    7.2124     0.000
  
  
  <<< Subcatchment S7 >>>
  -------------------------------------------------------------
  Date        Time        Precip.    Losses    Runoff       TSS
                            in/hr     in/hr       CFS      MG/L
  -------------------------------------------------------------
   01/01/1998 00:01:00      3.480     3.480    0.0000     0.000
   01/01/1998 00:02:00      3.480     3.480    0.0000     0.000
   01/01/1998 00:03:00      3.480     3.258    0.0000     0.000
   01/01/1998 00:04:00      3.480     2.944    0.0000     0.000
   01/01/1998 00:05:00      3.960     2.944    0.0000     0.000
   01/01/1998 00:06:00      3.960     2.409    0.0000     0.000
   01/01/1998 00:07:00      3.960     2.183    0.0000     0.000
   01/01/1998 00:08:00      3.960     1.979    0.0000     0.000
   01/01/1998 00:09:00      3.960     1.796    0.0000     0.000
   01/01/1998 00:10:00      4.560     1.796    0.0000     0.000
   01/01/1998 00:11:00      4.560     1.485    0.0000     0.000
   01/01/1998 00:12:00      4.560     1.353    0.0000     0.000
   01/01/1998 00:13:00      4.560     1.235    0.0103     0.000
   01/01/1998 00:14:00      4.560     1.129    0.1744     0.000
   01/01/1998 00:15:00      7.680     1.129    0.4724     0.000
   01/01/1998 00:16:00      7.680     0.948    1.3248     0.000
   01/01/1998 00:17:00      7.680     0.871    2.4236     0.000
   01/01/1998 00:18:00      7.680     0.802    3.6680     0.000
   01/01/1998 00:19:00      7.680     0.740    4.9779     0.000
   01/01/1998 00:20:00      9.720     0.740    6.2914     0.000
   01/01/1998 00:21:00      9.720     0.635    8.1941     0.000
   01/01/1998 00:22:00      9.720     0.590   10.0192     0.000
   01/01/1998 00:23:00      9.720     0.550   11.7130     0.000
   01/01/1998 00:24:00      9.720     0.514   13.2460     0.000
   01/01/1998 00:25:00     18.840     0.514   14.6068     0.000
   01/01/1998 00:26:00     18.840     0.453   19.5946     0.000
   01/01/1998 00:27:00     18.840     0.427   24.1064     0.000
   01/01/1998 00:28:00     18.840     0.404   28.0059     0.000
   01/01/1998 00:29:00     18.840     0.383   31.2685     0.000
   01/01/1998 00:30:00     34.200     0.383   33.9344     0.000
   01/01/1998 00:31:00     34.200     0.347   44.6567     0.000
   01/01/1998 00:32:00     34.200     0.332   53.5255     0.000
   01/01/1998 00:33:00     34.200     0.319   60.4960     0.000
   01/01/1998 00:34:00     34.200     0.306   65.7895     0.000
   01/01/1998 00:35:00     14.160     0.306   69.7163     0.000
   01/01/1998 00:36:00     14.160     0.286   59.3774     0.000
   01/01/1998 00:37:00     14.160     0.277   52.2778     0.000
   01/01/1998 00:38:00     14.160     0.269   47.2650     0.000
   01/01/1998 00:39:00     14.160     0.262   43.6490     0.000
   01/01/1998 00:40:00      8.520     0.262   40.9969     0.000
   01/01/1998 00:41:00      8.520     0.250   35.9655     0.000
   01/01/1998 00:42:00      8.520     0.245   32.2683     0.000
   01/01/1998 00:43:00      8.520     0.240   29.4988     0.000
   01/01/1998 00:44:00      8.520     0.236   27.3915     0.000
   01/01/1998 00:45:00      5.040     0.236   25.7677     0.000
   01/01/1998 00:46:00      5.040     0.229   22.8972     0.000
   01/01/1998 00:47:00      5.040     0.226   20.6862     0.000
   01/01/1998 00:48:00      5.040     0.223   18.9578     0.000
   01/01/1998 00:49:00      5.040     0.221   17.5898     0.000
   01/01/1998 00:50:00      4.200     0.221   16.4957     0.000
   01/01/1998 00:51:00      4.200     0.217   15.2803     0.000
   01/01/1998 00:52:00      4.200     0.215   14.2985     0.000
   01/01/1998 00:53:00      4.200     0.214   13.4984     0.000
   01/01/1998 00:54:00      4.200     0.212   12.8416     0.000
   01/01/1998 00:55:00      3.600     0.212   12.2990     0.000
   01/01/1998 00:56:00      3.600     0.210   11.6336     0.000
   01/01/1998 00:57:00      3.600     0.209   11.0814     0.000
   01/01/1998 00:58:00      3.600     0.208   10.6205     0.000
   01/01/1998 00:59:00      3.600     0.207   10.2338     0.000
   01/01/1998 01:00:00      2.400     0.207    9.9080     0.000
  
  
  ************************
  Node Time Series Results
  ************************
  
  <<< Node J1 >>>
  --------------------------------------------------------------------------
                           Inflow  Flooding     Depth      Head       TSS
  Date        Time            CFS       CFS      feet      feet      MG/L
  --------------------------------------------------------------------------
   01/01/1998 00:01:00      0.619     0.000     0.017  4973.017     0.000
   01/01/1998 00:02:00      2.779     0.000     0.168  4973.168     0.000
   01/01/1998 00:03:00      5.602     0.000     0.433  4973.433     0.000
   01/01/1998 00:04:00      7.441     0.000     0.578  4973.578     0.000
   01/01/1998 00:05:00      8.384     0.000     0.576  4973.576     0.000
   01/01/1998 00:06:00      9.495     0.000     0.553  4973.553     0.000
   01/01/1998 00:07:00      9.970     0.000     0.570  4973.570     0.000
   01/01/1998 00:08:00     10.190     0.000     0.581  4973.581     0.000
   01/01/1998 00:09:00     10.267     0.000     0.585  4973.585     0.000
   01/01/1998 00:10:00     10.299     0.000     0.587  4973.587     0.000
   01/01/1998 00:11:00     11.195     0.000     0.602  4973.602     0.000
   01/01/1998 00:12:00     11.641     0.000     0.619  4973.620     0.000
   01/01/1998 00:13:00     11.800     0.000     0.628  4973.628     0.000
   01/01/1998 00:14:00     12.077     0.000     0.634  4973.634     0.000
   01/01/1998 00:15:00     12.499     0.000     0.644  4973.644     0.000
   01/01/1998 00:16:00     18.505     0.000     0.735  4973.735     0.000
   01/01/1998 00:17:00     22.206     0.000     0.836  4973.836     0.000
   01/01/1998 00:18:00     24.258     0.000     0.891  4973.891     0.000
   01/01/1998 00:19:00     26.027     0.000     0.926  4973.926     0.000
   01/01/1998 00:20:00     27.419     0.000     0.953  4973.953     0.000
   01/01/1998 00:21:00     32.999     0.000     1.020  4974.020     0.000
   01/01/1998 00:22:00     35.994     0.000     1.082  4974.082     0.000
   01/01/1998 00:23:00     37.786     0.000     1.116  4974.116     0.000
   01/01/1998 00:24:00     39.126     0.000     1.138  4974.138     0.000
   01/01/1998 00:25:00     40.207     0.000     1.154  4974.154     0.000
   01/01/1998 00:26:00     63.088     0.000     1.347  4974.347     0.000
   01/01/1998 00:27:00     72.530     0.000     1.498  4974.498     0.000
   01/01/1998 00:28:00     76.820     0.000     1.556  4974.556     0.000
   01/01/1998 00:29:00     79.419     0.000     1.587  4974.587     0.000
   01/01/1998 00:30:00     81.317     0.000     1.607  4974.606     0.000
   01/01/1998 00:31:00    125.418     0.000     1.867  4974.867     0.000
   01/01/1998 00:32:00    139.641     0.000     2.032  4975.032     0.000
   01/01/1998 00:33:00    146.039     0.000     2.094  4975.094     0.000
   01/01/1998 00:34:00    149.879     0.000     2.130  4975.129     0.000
   01/01/1998 00:35:00    152.217     0.000     2.146  4975.146     0.000
   01/01/1998 00:36:00     95.622     0.000     1.874  4974.874     0.000
   01/01/1998 00:37:00     81.465     0.000     1.659  4974.659     0.000
   01/01/1998 00:38:00     75.172     0.000     1.575  4974.575     0.000
   01/01/1998 00:39:00     71.629     0.000     1.532  4974.532     0.000
   01/01/1998 00:40:00     69.362     0.000     1.506  4974.506     0.000
   01/01/1998 00:41:00     53.998     0.000     1.393  4974.393     0.000
   01/01/1998 00:42:00     47.782     0.000     1.289  4974.289     0.000
   01/01/1998 00:43:00     44.840     0.000     1.238  4974.237     0.000
   01/01/1998 00:44:00     43.101     0.000     1.208  4974.208     0.000
   01/01/1998 00:45:00     41.901     0.000     1.189  4974.189     0.000
   01/01/1998 00:46:00     33.562     0.000     1.110  4974.110     0.000
   01/01/1998 00:47:00     29.514     0.000     1.027  4974.027     0.000
   01/01/1998 00:48:00     27.492     0.000     0.981  4973.981     0.000
   01/01/1998 00:49:00     26.298     0.000     0.954  4973.954     0.000
   01/01/1998 00:50:00     25.435     0.000     0.936  4973.936     0.000
   01/01/1998 00:51:00     23.146     0.000     0.905  4973.905     0.000
   01/01/1998 00:52:00     21.932     0.000     0.874  4973.875     0.000
   01/01/1998 00:53:00     21.158     0.000     0.855  4973.855     0.000
   01/01/1998 00:54:00     20.622     0.000     0.842  4973.842     0.000
   01/01/1998 00:55:00     20.242     0.000     0.833  4973.833     0.000
   01/01/1998 00:56:00     18.881     0.000     0.814  4973.813     0.000
   01/01/1998 00:57:00     18.072     0.000     0.792  4973.792     0.000
   01/01/1998 00:58:00     17.559     0.000     0.778  4973.778     0.000
   01/01/1998 00:59:00     17.260     0.000     0.769  4973.770     0.000
   01/01/1998 01:00:00     17.019     0.000     0.763  4973.763     0.000
  
  
  <<< Node J2 >>>
  --------------------------------------------------------------------------
                           Inflow  Flooding     Depth      Head       TSS
  Date        Time            CFS       CFS      feet      feet      MG/L
  --------------------------------------------------------------------------
   01/01/1998 00:01:00      0.657     0.000     0.035  4969.035     0.000
   01/01/1998 00:02:00      2.983     0.000     0.127  4969.127     0.000
   01/01/1998 00:03:00      6.142     0.000     0.239  4969.239     0.000
   01/01/1998 00:04:00      8.321     0.000     0.340  4969.340     0.000
   01/01/1998 00:05:00      9.514     0.000     0.419  4969.419     0.000
   01/01/1998 00:06:00     10.842     0.000     0.479  4969.479     0.000
   01/01/1998 00:07:00     11.440     0.000     0.526  4969.526     0.000
   01/01/1998 00:08:00     11.733     0.000     0.559  4969.559     0.000
   01/01/1998 00:09:00     11.841     0.000     0.582  4969.583     0.000
   01/01/1998 00:10:00     11.890     0.000     0.598  4969.598     0.000
   01/01/1998 00:11:00     12.891     0.000     0.612  4969.611     0.000
   01/01/1998 00:12:00     13.415     0.000     0.626  4969.625     0.000
   01/01/1998 00:13:00     13.612     0.000     0.637  4969.637     0.000
   01/01/1998 00:14:00     13.916     0.000     0.646  4969.646     0.000
   01/01/1998 00:15:00     14.359     0.000     0.654  4969.654     0.000
   01/01/1998 00:16:00     20.944     0.000     0.680  4969.680     0.000
   01/01/1998 00:17:00     25.053     0.000     0.729  4969.729     0.000
   01/01/1998 00:18:00     27.244     0.000     0.774  4969.774     0.000
   01/01/1998 00:19:00     29.018     0.000     0.810  4969.810     0.000
   01/01/1998 00:20:00     30.330     0.000     0.838  4969.838     0.000
   01/01/1998 00:21:00     36.219     0.000     0.871  4969.871     0.000
   01/01/1998 00:22:00     39.292     0.000     0.910  4969.910     0.000
   01/01/1998 00:23:00     41.001     0.000     0.942  4969.941     0.000
   01/01/1998 00:24:00     42.193     0.000     0.965  4969.965     0.000
   01/01/1998 00:25:00     43.102     0.000     0.981  4969.981     0.000
   01/01/1998 00:26:00     67.911    25.310     1.000  4970.000     0.000
   01/01/1998 00:27:00     78.108    35.000     1.000  4970.000     0.000
   01/01/1998 00:28:00     82.329    39.337     1.000  4970.000     0.000
   01/01/1998 00:29:00     84.637    41.821     1.000  4970.000     0.000
   01/01/1998 00:30:00     86.215    43.380     1.000  4970.000     0.000
   01/01/1998 00:31:00    134.102    91.196     1.000  4970.000     0.000
   01/01/1998 00:32:00    149.099   106.171     1.000  4970.000     0.000
   01/01/1998 00:33:00    155.032   112.134     1.000  4970.000     0.000
   01/01/1998 00:34:00    158.260   115.375     1.000  4970.000     0.000
   01/01/1998 00:35:00    160.098   117.257     1.000  4970.000     0.000
   01/01/1998 00:36:00     97.874    57.834     1.000  4970.000     0.000
   01/01/1998 00:37:00     82.573    40.033     1.000  4970.000     0.000
   01/01/1998 00:38:00     76.253    33.418     1.000  4970.000     0.000
   01/01/1998 00:39:00     72.968    30.103     1.000  4970.000     0.000
   01/01/1998 00:40:00     70.994    28.243     1.000  4970.000     0.000
   01/01/1998 00:41:00     54.694    11.986     1.000  4970.000     0.000
   01/01/1998 00:42:00     48.244     5.619     1.000  4970.000     0.000
   01/01/1998 00:43:00     45.382     2.652     1.000  4970.000     0.000
   01/01/1998 00:44:00     43.804     0.997     1.000  4970.000     0.000
   01/01/1998 00:45:00     42.776     0.005     1.000  4970.000     0.000
   01/01/1998 00:46:00     33.956     0.000     0.982  4969.982     0.000
   01/01/1998 00:47:00     29.730     0.000     0.944  4969.944     0.000
   01/01/1998 00:48:00     27.715     0.000     0.909  4969.909     0.000
   01/01/1998 00:49:00     26.593     0.000     0.882  4969.882     0.000
   01/01/1998 00:50:00     25.824     0.000     0.863  4969.863     0.000
   01/01/1998 00:51:00     23.489     0.000     0.844  4969.844     0.000
   01/01/1998 00:52:00     22.283     0.000     0.824  4969.824     0.000
   01/01/1998 00:53:00     21.547     0.000     0.807  4969.807     0.000
   01/01/1998 00:54:00     21.063     0.000     0.794  4969.794     0.000
   01/01/1998 00:55:00     20.739     0.000     0.784  4969.785     0.000
   01/01/1998 00:56:00     19.334     0.000     0.774  4969.774     0.000
   01/01/1998 00:57:00     18.513     0.000     0.762  4969.762     0.000
   01/01/1998 00:58:00     18.014     0.000     0.751  4969.750     0.000
   01/01/1998 00:59:00     17.739     0.000     0.742  4969.742     0.000
   01/01/1998 01:00:00     17.528     0.000     0.735  4969.735     0.000
  
  
  <<< Node J3 >>>
  --------------------------------------------------------------------------
                           Inflow  Flooding     Depth      Head       TSS
  Date        Time            CFS       CFS      feet      feet      MG/L
  --------------------------------------------------------------------------
   01/01/1998 00:01:00      0.593     0.000     0.167  4973.167     0.000
   01/01/1998 00:02:00      2.451     0.000     0.438  4973.438     0.000
   01/01/1998 00:03:00      4.192     0.000     0.553  4973.553     0.000
   01/01/1998 00:04:00      4.898     0.000     0.579  4973.579     0.000
   01/01/1998 00:05:00      5.112     0.000     0.594  4973.594     0.000
   01/01/1998 00:06:00      5.676     0.000     0.634  4973.634     0.000
   01/01/1998 00:07:00      5.838     0.000     0.644  4973.645     0.000
   01/01/1998 00:08:00      5.886     0.000     0.647  4973.646     0.000
   01/01/1998 00:09:00      5.896     0.000     0.647  4973.647     0.000
   01/01/1998 00:10:00      5.898     0.000     0.647  4973.647     0.000
   01/01/1998 00:11:00      6.531     0.000     0.683  4973.683     0.000
   01/01/1998 00:12:00      6.741     0.000     0.693  4973.693     0.000
   01/01/1998 00:13:00      6.795     0.000     0.695  4973.695     0.000
   01/01/1998 00:14:00      7.054     0.000     0.709  4973.709     0.000
   01/01/1998 00:15:00      7.512     0.000     0.732  4973.732     0.000
   01/01/1998 00:16:00     12.215     0.000     0.959  4973.959     0.000
   01/01/1998 00:17:00     14.858     0.000     1.056  4974.057     0.000
   01/01/1998 00:18:00     16.623     0.000     1.125  4974.125     0.000
   01/01/1998 00:19:00     18.418     0.000     1.190  4974.190     0.000
   01/01/1998 00:20:00     19.954     0.000     1.246  4974.246     0.000
   01/01/1998 00:21:00     24.653     0.000     1.426  4974.426     0.000
   01/01/1998 00:22:00     27.163     0.000     1.513  4974.513     0.000
   01/01/1998 00:23:00     28.910     0.000     1.578  4974.579     0.000
   01/01/1998 00:24:00     30.355     0.000     1.634  4974.634     0.000
   01/01/1998 00:25:00     31.575     0.000     1.679  4974.679     0.000
   01/01/1998 00:26:00     49.224    11.102     2.250  4975.250     0.000
   01/01/1998 00:27:00     56.057    17.791     2.250  4975.250     0.000
   01/01/1998 00:28:00     60.114    21.991     2.250  4975.250     0.000
   01/01/1998 00:29:00     62.952    25.131     2.250  4975.250     0.000
   01/01/1998 00:30:00     65.110    27.365     2.250  4975.250     0.000
   01/01/1998 00:31:00     98.565    60.910     2.250  4975.250     0.000
   01/01/1998 00:32:00    109.833    72.661     2.250  4975.250     0.000
   01/01/1998 00:33:00    116.468    79.798     2.250  4975.250     0.000
   01/01/1998 00:34:00    120.817    84.102     2.250  4975.250     0.000
   01/01/1998 00:35:00    123.516    86.862     2.250  4975.250     0.000
   01/01/1998 00:36:00     81.173    46.470     2.250  4975.250     0.000
   01/01/1998 00:37:00     70.555    33.957     2.250  4975.250     0.000
   01/01/1998 00:38:00     64.746    27.547     2.250  4975.250     0.000
   01/01/1998 00:39:00     61.014    23.516     2.250  4975.250     0.000
   01/01/1998 00:40:00     58.479    20.978     2.250  4975.250     0.000
   01/01/1998 00:41:00     46.051     8.455     2.250  4975.250     0.000
   01/01/1998 00:42:00     41.156     3.488     2.250  4975.250     0.000
   01/01/1998 00:43:00     38.477     0.632     2.250  4975.250     0.000
   01/01/1998 00:44:00     36.687     0.000     1.883  4974.883     0.000
   01/01/1998 00:45:00     35.371     0.000     1.839  4974.839     0.000
   01/01/1998 00:46:00     28.548     0.000     1.546  4974.546     0.000
   01/01/1998 00:47:00     25.417     0.000     1.440  4974.440     0.000
   01/01/1998 00:48:00     23.691     0.000     1.380  4974.379     0.000
   01/01/1998 00:49:00     22.540     0.000     1.337  4974.337     0.000
   01/01/1998 00:50:00     21.638     0.000     1.305  4974.305     0.000
   01/01/1998 00:51:00     19.631     0.000     1.229  4974.229     0.000
   01/01/1998 00:52:00     18.602     0.000     1.192  4974.191     0.000
   01/01/1998 00:53:00     17.895     0.000     1.166  4974.166     0.000
   01/01/1998 00:54:00     17.358     0.000     1.146  4974.146     0.000
   01/01/1998 00:55:00     16.953     0.000     1.132  4974.132     0.000
   01/01/1998 00:56:00     15.784     0.000     1.084  4974.084     0.000
   01/01/1998 00:57:00     15.125     0.000     1.059  4974.060     0.000
   01/01/1998 00:58:00     14.681     0.000     1.043  4974.043     0.000
   01/01/1998 00:59:00     14.394     0.000     1.032  4974.032     0.000
   01/01/1998 01:00:00     14.145     0.000     1.022  4974.022     0.000
  
  
  <<< Node J4 >>>
  --------------------------------------------------------------------------
                           Inflow  Flooding     Depth      Head       TSS
  Date        Time            CFS       CFS      feet      feet      MG/L
  --------------------------------------------------------------------------
   01/01/1998 00:01:00      0.269     0.000     0.011  4971.011     0.000
   01/01/1998 00:02:00      2.169     0.000     0.144  4971.144     0.000
   01/01/1998 00:03:00      4.078     0.000     0.402  4971.402     0.000
   01/01/1998 00:04:00      4.846     0.000     0.554  4971.554     0.000
   01/01/1998 00:05:00      5.073     0.000     0.532  4971.532     0.000
   01/01/1998 00:06:00      5.587     0.000     0.501  4971.501     0.000
   01/01/1998 00:07:00      5.821     0.000     0.512  4971.512     0.000
   01/01/1998 00:08:00      5.880     0.000     0.518  4971.518     0.000
   01/01/1998 00:09:00      5.894     0.000     0.520  4971.520     0.000
   01/01/1998 00:10:00      5.898     0.000     0.520  4971.520     0.000
   01/01/1998 00:11:00      6.459     0.000     0.532  4971.532     0.000
   01/01/1998 00:12:00      6.717     0.000     0.550  4971.550     0.000
   01/01/1998 00:13:00      6.789     0.000     0.558  4971.558     0.000
   01/01/1998 00:14:00      7.022     0.000     0.564  4971.564     0.000
   01/01/1998 00:15:00      7.456     0.000     0.578  4971.578     0.000
   01/01/1998 00:16:00     11.799     0.000     0.666  4971.667     0.000
   01/01/1998 00:17:00     14.599     0.000     0.788  4971.788     0.000
   01/01/1998 00:18:00     16.489     0.000     0.856  4971.855     0.000
   01/01/1998 00:19:00     18.204     0.000     0.904  4971.904     0.000
   01/01/1998 00:20:00     19.766     0.000     0.946  4971.946     0.000
   01/01/1998 00:21:00     24.195     0.000     1.020  4972.021     0.000
   01/01/1998 00:22:00     26.945     0.000     1.097  4972.097     0.000
   01/01/1998 00:23:00     28.783     0.000     1.140  4972.141     0.000
   01/01/1998 00:24:00     30.252     0.000     1.172  4972.172     0.000
   01/01/1998 00:25:00     31.445     0.000     1.196  4972.196     0.000
   01/01/1998 00:26:00     38.091     0.000     1.300  4972.300     0.000
   01/01/1998 00:27:00     38.053     0.000     1.322  4972.322     0.000
   01/01/1998 00:28:00     37.929     0.000     1.406  4972.406     0.000
   01/01/1998 00:29:00     37.798     0.000     1.470  4972.470     0.000
   01/01/1998 00:30:00     37.691     0.000     1.514  4972.514     0.000
   01/01/1998 00:31:00     37.578     0.000     1.563  4972.562     0.000
   01/01/1998 00:32:00     37.068     0.000     1.734  4972.734     0.000
   01/01/1998 00:33:00     36.553     0.000     1.855  4972.854     0.000
   01/01/1998 00:34:00     36.595     0.000     1.832  4972.832     0.000
   01/01/1998 00:35:00     36.590     0.000     1.830  4972.830     0.000
   01/01/1998 00:36:00     36.580     0.000     1.840  4972.840     0.000
   01/01/1998 00:37:00     36.781     0.000     1.772  4972.772     0.000
   01/01/1998 00:38:00     37.161     0.000     1.677  4972.677     0.000
   01/01/1998 00:39:00     37.416     0.000     1.604  4972.604     0.000
   01/01/1998 00:40:00     37.563     0.000     1.554  4972.554     0.000
   01/01/1998 00:41:00     37.663     0.000     1.516  4972.516     0.000
   01/01/1998 00:42:00     37.800     0.000     1.456  4972.456     0.000
   01/01/1998 00:43:00     37.909     0.000     1.404  4972.404     0.000
   01/01/1998 00:44:00     36.506     0.000     1.363  4972.363     0.000
   01/01/1998 00:45:00     35.493     0.000     1.315  4972.315     0.000
   01/01/1998 00:46:00     29.092     0.000     1.226  4972.226     0.000
   01/01/1998 00:47:00     25.685     0.000     1.130  4972.130     0.000
   01/01/1998 00:48:00     23.870     0.000     1.073  4972.073     0.000
   01/01/1998 00:49:00     22.634     0.000     1.041  4972.041     0.000
   01/01/1998 00:50:00     21.724     0.000     1.017  4972.018     0.000
   01/01/1998 00:51:00     19.844     0.000     0.984  4971.984     0.000
   01/01/1998 00:52:00     18.675     0.000     0.949  4971.949     0.000
   01/01/1998 00:53:00     17.945     0.000     0.927  4971.927     0.000
   01/01/1998 00:54:00     17.412     0.000     0.911  4971.911     0.000
   01/01/1998 00:55:00     17.004     0.000     0.899  4971.899     0.000
   01/01/1998 00:56:00     15.885     0.000     0.879  4971.878     0.000
   01/01/1998 00:57:00     15.173     0.000     0.854  4971.854     0.000
   01/01/1998 00:58:00     14.737     0.000     0.839  4971.839     0.000
   01/01/1998 00:59:00     14.423     0.000     0.828  4971.829     0.000
   01/01/1998 01:00:00     14.179     0.000     0.820  4971.820     0.000
  
  
  <<< Node J5 >>>
  --------------------------------------------------------------------------
                           Inflow  Flooding     Depth      Head       TSS
  Date        Time            CFS       CFS      feet      feet      MG/L
  --------------------------------------------------------------------------
   01/01/1998 00:01:00      0.180     0.000     0.003  4969.803     0.000
   01/01/1998 00:02:00      0.654     0.000     0.013  4969.813     0.000
   01/01/1998 00:03:00      3.973     0.000     0.081  4969.881     0.000
   01/01/1998 00:04:00     10.800     0.000     0.282  4970.082     0.000
   01/01/1998 00:05:00     15.471     0.000     0.536  4970.335     0.000
   01/01/1998 00:06:00     14.639     0.000     0.719  4970.519     0.000
   01/01/1998 00:07:00     15.407     0.000     0.834  4970.634     0.000
   01/01/1998 00:08:00     15.885     0.000     0.915  4970.715     0.000
   01/01/1998 00:09:00     16.089     0.000     0.970  4970.770     0.000
   01/01/1998 00:10:00     16.170     0.000     1.006  4970.806     0.000
   01/01/1998 00:11:00     16.868     0.000     1.032  4970.832     0.000
   01/01/1998 00:12:00     17.922     0.000     1.062  4970.861     0.000
   01/01/1998 00:13:00     18.413     0.000     1.089  4970.888     0.000
   01/01/1998 00:14:00     18.805     0.000     1.110  4970.910     0.000
   01/01/1998 00:15:00     19.481     0.000     1.130  4970.929     0.000
   01/01/1998 00:16:00     25.037     0.000     1.167  4970.967     0.000
   01/01/1998 00:17:00     33.517     0.000     1.276  4971.076     0.000
   01/01/1998 00:18:00     38.764     0.000     1.403  4971.203     0.000
   01/01/1998 00:19:00     42.545     0.000     1.514  4971.314     0.000
   01/01/1998 00:20:00     45.820     0.000     1.606  4971.406     0.000
   01/01/1998 00:21:00     52.731     0.000     1.694  4971.494     0.000
   01/01/1998 00:22:00     60.436     0.000     1.806  4971.606     0.000
   01/01/1998 00:23:00     65.012     0.000     1.908  4971.708     0.000
   01/01/1998 00:24:00     68.216     0.000     1.987  4971.787     0.000
   01/01/1998 00:25:00     70.741     0.000     2.046  4971.846     0.000
   01/01/1998 00:26:00     91.367     0.000     2.143  4971.943     0.000
   01/01/1998 00:27:00    106.108     0.000     2.325  4972.125     0.000
   01/01/1998 00:28:00    111.097     0.000     2.453  4972.252     0.000
   01/01/1998 00:29:00    114.883     0.000     2.537  4972.337     0.000
   01/01/1998 00:30:00    117.414     0.000     2.592  4972.392     0.000
   01/01/1998 00:31:00    145.933     0.000     2.692  4972.492     0.000
   01/01/1998 00:32:00    167.519     0.000     2.883  4972.683     0.000
   01/01/1998 00:33:00    178.273     0.000     2.976  4972.776     0.000
   01/01/1998 00:34:00    183.344     0.000     2.969  4972.769     0.000
   01/01/1998 00:35:00    191.389     0.000     2.989  4972.789     0.000
   01/01/1998 00:36:00    150.162     0.000     2.989  4972.789     0.000
   01/01/1998 00:37:00    127.439     0.000     2.889  4972.688     0.000
   01/01/1998 00:38:00    117.213     0.000     2.773  4972.573     0.000
   01/01/1998 00:39:00    111.933     0.000     2.686  4972.486     0.000
   01/01/1998 00:40:00    108.815     0.000     2.626  4972.426     0.000
   01/01/1998 00:41:00     98.620     0.000     2.565  4972.365     0.000
   01/01/1998 00:42:00     89.793     0.000     2.475  4972.275     0.000
   01/01/1998 00:43:00     85.215     0.000     2.397  4972.197     0.000
   01/01/1998 00:44:00     82.747     0.000     2.340  4972.140     0.000
   01/01/1998 00:45:00     78.790     0.000     2.290  4972.090     0.000
   01/01/1998 00:46:00     68.804     0.000     2.230  4972.030     0.000
   01/01/1998 00:47:00     58.984     0.000     2.123  4971.923     0.000
   01/01/1998 00:48:00     53.280     0.000     2.019  4971.819     0.000
   01/01/1998 00:49:00     50.115     0.000     1.936  4971.735     0.000
   01/01/1998 00:50:00     47.984     0.000     1.872  4971.672     0.000
   01/01/1998 00:51:00     44.944     0.000     1.821  4971.621     0.000
   01/01/1998 00:52:00     41.783     0.000     1.766  4971.566     0.000
   01/01/1998 00:53:00     39.851     0.000     1.716  4971.516     0.000
   01/01/1998 00:54:00     38.574     0.000     1.677  4971.477     0.000
   01/01/1998 00:55:00     37.634     0.000     1.645  4971.445     0.000
   01/01/1998 00:56:00     35.959     0.000     1.618  4971.418     0.000
   01/01/1998 00:57:00     34.012     0.000     1.585  4971.385     0.000
   01/01/1998 00:58:00     32.810     0.000     1.553  4971.353     0.000
   01/01/1998 00:59:00     32.024     0.000     1.527  4971.326     0.000
   01/01/1998 01:00:00     31.446     0.000     1.505  4971.305     0.000
  
  
  <<< Node J6 >>>
  --------------------------------------------------------------------------
                           Inflow  Flooding     Depth      Head       TSS
  Date        Time            CFS       CFS      feet      feet      MG/L
  --------------------------------------------------------------------------
   01/01/1998 00:01:00      0.109     0.000     0.051    10.051     0.000
   01/01/1998 00:02:00      1.583     0.000     0.278    10.278     0.000
   01/01/1998 00:03:00      6.813     0.000     0.522    10.522     0.000
   01/01/1998 00:04:00     10.976     0.000     0.794    10.794     0.000
   01/01/1998 00:05:00     15.095     0.000     1.111    11.111     0.000
   01/01/1998 00:06:00     19.262     0.000     1.458    11.458     0.000
   01/01/1998 00:07:00     22.618     0.000     1.822    11.822     0.000
   01/01/1998 00:08:00     24.948     0.000     2.182    12.182     0.000
   01/01/1998 00:09:00     26.546     0.000     2.529    12.529     0.000
   01/01/1998 00:10:00     27.659     0.000     2.861    12.861     0.000
   01/01/1998 00:11:00     29.090     0.000     3.184    13.184     0.000
   01/01/1998 00:12:00     30.840    30.788     3.500    13.500     0.000
   01/01/1998 00:13:00     32.050    32.036     3.500    13.500     0.000
   01/01/1998 00:14:00     33.082    33.075     3.500    13.500     0.000
   01/01/1998 00:15:00     34.338    34.297     3.500    13.500     0.000
   01/01/1998 00:16:00     41.126    41.453     3.500    13.500     0.000
   01/01/1998 00:17:00     52.085    51.888     3.500    13.500     0.000
   01/01/1998 00:18:00     61.350    61.595     3.500    13.500     0.000
   01/01/1998 00:19:00     69.440    69.210     3.500    13.500     0.000
   01/01/1998 00:20:00     76.747    76.615     3.500    13.500     0.000
   01/01/1998 00:21:00     87.809    87.712     3.500    13.500     0.000
   01/01/1998 00:22:00    100.335   100.233     3.500    13.500     0.000
   01/01/1998 00:23:00    110.144   110.321     3.500    13.500     0.000
   01/01/1998 00:24:00    117.859   118.035     3.500    13.500     0.000
   01/01/1998 00:25:00    124.025   123.927     3.500    13.500     0.000
   01/01/1998 00:26:00    156.172   156.116     3.500    13.500     0.000
   01/01/1998 00:27:00    190.246   189.748     3.500    13.500     0.000
   01/01/1998 00:28:00    209.704   209.306     3.500    13.500     0.000
   01/01/1998 00:29:00    222.725   222.670     3.500    13.500     0.000
   01/01/1998 00:30:00    231.671   231.520     3.500    13.500     0.000
   01/01/1998 00:31:00    293.109   292.980     3.500    13.500     0.000
   01/01/1998 00:32:00    345.063   344.828     3.500    13.500     0.000
   01/01/1998 00:33:00    351.391   357.190     3.500    13.500     0.000
   01/01/1998 00:34:00    355.300   363.747     3.500    13.500     0.000
   01/01/1998 00:35:00    380.936   380.036     3.500    13.500     0.000
   01/01/1998 00:36:00    318.577   320.564     3.500    13.500     0.000
   01/01/1998 00:37:00    272.015   272.352     3.500    13.500     0.000
   01/01/1998 00:38:00    246.715   246.623     3.500    13.500     0.000
   01/01/1998 00:39:00    230.742   230.485     3.500    13.500     0.000
   01/01/1998 00:40:00    220.251   220.438     3.500    13.500     0.000
   01/01/1998 00:41:00    196.279   196.385     3.500    13.500     0.000
   01/01/1998 00:42:00    175.089   175.357     3.500    13.500     0.000
   01/01/1998 00:43:00    162.322   162.466     3.500    13.500     0.000
   01/01/1998 00:44:00    154.025   153.996     3.500    13.500     0.000
   01/01/1998 00:45:00    147.561   147.695     3.500    13.500     0.000
   01/01/1998 00:46:00    133.264   132.842     3.500    13.500     0.000
   01/01/1998 00:47:00    117.203   117.380     3.500    13.500     0.000
   01/01/1998 00:48:00    105.871   106.053     3.500    13.500     0.000
   01/01/1998 00:49:00     97.884    97.852     3.500    13.500     0.000
   01/01/1998 00:50:00     92.169    92.279     3.500    13.500     0.000
   01/01/1998 00:51:00     86.289    86.385     3.500    13.500     0.000
   01/01/1998 00:52:00     80.556    80.424     3.500    13.500     0.000
   01/01/1998 00:53:00     76.283    76.178     3.500    13.500     0.000
   01/01/1998 00:54:00     73.114    73.154     3.500    13.500     0.000
   01/01/1998 00:55:00     70.686    70.725     3.500    13.500     0.000
   01/01/1998 00:56:00     67.755    67.686     3.500    13.500     0.000
   01/01/1998 00:57:00     64.524    64.469     3.500    13.500     0.000
   01/01/1998 00:58:00     62.030    62.105     3.500    13.500     0.000
   01/01/1998 00:59:00     60.140    60.151     3.500    13.500     0.000
   01/01/1998 01:00:00     58.658    58.681     3.500    13.500     0.000
  
  
  <<< Node J7 >>>
  --------------------------------------------------------------------------
                           Inflow  Flooding     Depth      Head       TSS
  Date        Time            CFS       CFS      feet      feet      MG/L
  --------------------------------------------------------------------------
   01/01/1998 00:01:00      1.054     0.000     0.048  4971.548     0.000
   01/01/1998 00:02:00      4.549     0.000     0.232  4971.732     0.000
   01/01/1998 00:03:00      8.508     0.000     0.475  4971.975     0.000
   01/01/1998 00:04:00     10.603     0.000     0.573  4972.073     0.000
   01/01/1998 00:05:00     11.457     0.000     0.608  4972.108     0.000
   01/01/1998 00:06:00     12.792     0.000     0.638  4972.138     0.000
   01/01/1998 00:07:00     13.272     0.000     0.659  4972.159     0.000
   01/01/1998 00:08:00     13.454     0.000     0.667  4972.167     0.000
   01/01/1998 00:09:00     13.504     0.000     0.670  4972.170     0.000
   01/01/1998 00:10:00     13.522     0.000     0.671  4972.170     0.000
   01/01/1998 00:11:00     14.828     0.000     0.689  4972.189     0.000
   01/01/1998 00:12:00     15.372     0.000     0.710  4972.209     0.000
   01/01/1998 00:13:00     15.537     0.000     0.718  4972.218     0.000
   01/01/1998 00:14:00     15.980     0.000     0.726  4972.226     0.000
   01/01/1998 00:15:00     16.721     0.000     0.740  4972.240     0.000
   01/01/1998 00:16:00     25.885     0.000     0.863  4972.363     0.000
   01/01/1998 00:17:00     31.168     0.000     0.986  4972.486     0.000
   01/01/1998 00:18:00     34.264     0.000     1.050  4972.549     0.000
   01/01/1998 00:19:00     37.149     0.000     1.094  4972.594     0.000
   01/01/1998 00:20:00     39.515     0.000     1.130  4972.629     0.000
   01/01/1998 00:21:00     48.155     0.000     1.220  4972.720     0.000
   01/01/1998 00:22:00     52.610     0.000     1.292  4972.792     0.000
   01/01/1998 00:23:00     55.403     0.000     1.331  4972.831     0.000
   01/01/1998 00:24:00     57.584     0.000     1.358  4972.858     0.000
   01/01/1998 00:25:00     59.374     0.000     1.378  4972.878     0.000
   01/01/1998 00:26:00     93.710     0.000     1.635  4973.135     0.000
   01/01/1998 00:27:00    106.768     0.000     1.789  4973.289     0.000
   01/01/1998 00:28:00    113.284     0.000     1.849  4973.349     0.000
   01/01/1998 00:29:00    117.530     0.000     1.885  4973.385     0.000
   01/01/1998 00:30:00    120.677     0.000     1.909  4973.409     0.000
   01/01/1998 00:31:00    186.048     0.000     2.247  4973.747     0.000
   01/01/1998 00:32:00    206.238     0.000     2.408  4973.909     0.000
   01/01/1998 00:33:00    216.422     0.000     2.468  4973.968     0.000
   01/01/1998 00:34:00    222.786     0.000     2.503  4974.003     0.000
   01/01/1998 00:35:00    226.642     0.000     2.524  4974.024     0.000
   01/01/1998 00:36:00    142.975     0.000     2.174  4973.674     0.000
   01/01/1998 00:37:00    123.102     0.000     1.961  4973.461     0.000
   01/01/1998 00:38:00    113.572     0.000     1.877  4973.377     0.000
   01/01/1998 00:39:00    107.857     0.000     1.829  4973.329     0.000
   01/01/1998 00:40:00    104.093     0.000     1.797  4973.297     0.000
   01/01/1998 00:41:00     80.801     0.000     1.646  4973.146     0.000
   01/01/1998 00:42:00     71.877     0.000     1.534  4973.034     0.000
   01/01/1998 00:43:00     67.496     0.000     1.481  4972.981     0.000
   01/01/1998 00:44:00     64.766     0.000     1.448  4972.948     0.000
   01/01/1998 00:45:00     62.824     0.000     1.426  4972.926     0.000
   01/01/1998 00:46:00     50.113     0.000     1.319  4972.818     0.000
   01/01/1998 00:47:00     44.298     0.000     1.227  4972.727     0.000
   01/01/1998 00:48:00     41.359     0.000     1.180  4972.680     0.000
   01/01/1998 00:49:00     39.546     0.000     1.150  4972.650     0.000
   01/01/1998 00:50:00     38.186     0.000     1.129  4972.629     0.000
   01/01/1998 00:51:00     34.639     0.000     1.089  4972.589     0.000
   01/01/1998 00:52:00     32.842     0.000     1.053  4972.554     0.000
   01/01/1998 00:53:00     31.686     0.000     1.032  4972.532     0.000
   01/01/1998 00:54:00     30.859     0.000     1.018  4972.518     0.000
   01/01/1998 00:55:00     30.258     0.000     1.007  4972.507     0.000
   01/01/1998 00:56:00     28.155     0.000     0.981  4972.481     0.000
   01/01/1998 00:57:00     26.970     0.000     0.956  4972.456     0.000
   01/01/1998 00:58:00     26.220     0.000     0.941  4972.440     0.000
   01/01/1998 00:59:00     25.769     0.000     0.931  4972.431     0.000
   01/01/1998 01:00:00     25.394     0.000     0.924  4972.424     0.000
  
  
  <<< Node J8 >>>
[...]
   01/01/1998 00:51:00      0.000     0.000     1.750     0.500     0.000
   01/01/1998 00:52:00      0.000     0.000     1.750     0.500     0.000
   01/01/1998 00:53:00      0.000     0.000     1.750     0.500     0.000
   01/01/1998 00:54:00      0.000     0.000     1.750     0.500     0.000
   01/01/1998 00:55:00      0.000     0.000     1.750     0.500     0.000
   01/01/1998 00:56:00      0.000     0.000     1.750     0.500     0.000
   01/01/1998 00:57:00      0.000     0.000     1.750     0.500     0.000
   01/01/1998 00:58:00      0.000     0.000     1.750     0.500     0.000
   01/01/1998 00:59:00      0.000     0.000     1.750     0.500     0.000
   01/01/1998 01:00:00      0.000     0.000     1.750     0.500     0.000
  
  
  <<< Link C8 >>>
  --------------------------------------------------------------------------
                             Flow  Velocity     Depth  Capacity/       TSS
  Date        Time            CFS    ft/sec      feet   Setting       MG/L
  --------------------------------------------------------------------------
   01/01/1998 00:01:00      0.000     0.000     0.000     0.000     0.000
   01/01/1998 00:02:00      0.000     0.000     0.000     0.000     0.000
   01/01/1998 00:03:00      0.000     0.000     0.000     0.000     0.000
   01/01/1998 00:04:00      0.000     0.000     0.000     0.000     0.000
   01/01/1998 00:05:00      0.000     0.000     0.000     0.000     0.000
   01/01/1998 00:06:00      0.000     0.000     0.000     0.000     0.000
   01/01/1998 00:07:00      0.000     0.000     0.000     0.000     0.000
   01/01/1998 00:08:00      0.000     0.000     0.000     0.000     0.000
   01/01/1998 00:09:00      0.000     0.000     0.000     0.000     0.000
   01/01/1998 00:10:00      0.000     0.000     0.000     0.000     0.000
   01/01/1998 00:11:00      0.000     0.000     0.000     0.000     0.000
   01/01/1998 00:12:00      0.000     0.000     0.001     0.000     0.000
   01/01/1998 00:13:00      0.000     0.000     0.007     0.001     0.000
   01/01/1998 00:14:00      0.000     0.000     0.015     0.001     0.000
   01/01/1998 00:15:00      0.000     0.000     0.024     0.002     0.000
   01/01/1998 00:16:00      0.000     0.000     0.034     0.003     0.000
   01/01/1998 00:17:00      0.000     0.000     0.055     0.005     0.000
   01/01/1998 00:18:00      0.000     0.000     0.091     0.008     0.000
   01/01/1998 00:19:00      0.000     0.000     0.134     0.013     0.000
   01/01/1998 00:20:00      0.000     0.000     0.180     0.018     0.000
   01/01/1998 00:21:00      0.000     0.000     0.227     0.023     0.000
   01/01/1998 00:22:00      0.000     0.000     0.280     0.030     0.000
   01/01/1998 00:23:00      0.000     0.000     0.337     0.038     0.000
   01/01/1998 00:24:00      0.000     0.000     0.393     0.046     0.000
   01/01/1998 00:25:00      0.000     0.000     0.443     0.053     0.000
   01/01/1998 00:26:00      0.000     0.000     0.490     0.061     0.000
   01/01/1998 00:27:00      0.000     0.000     0.582     0.077     0.000
   01/01/1998 00:28:00      0.000     0.000     0.706     0.100     0.000
   01/01/1998 00:29:00      0.000     0.000     0.823     0.125     0.000
   01/01/1998 00:30:00     -3.322    -0.384     0.908     0.144     0.000
   01/01/1998 00:31:00     -6.951    -0.729     0.969     0.159     0.000
   01/01/1998 00:32:00     -9.325    -0.910     1.016     0.171     0.000
   01/01/1998 00:33:00     -8.868    -0.882     1.004     0.168     0.000
   01/01/1998 00:34:00     -7.924    -0.812     0.984     0.163     0.000
   01/01/1998 00:35:00     -8.222    -0.833     0.992     0.165     0.000
   01/01/1998 00:36:00     -8.659    -0.865     1.001     0.167     0.000
   01/01/1998 00:37:00     -8.509    -0.855     0.997     0.166     0.000
   01/01/1998 00:38:00     -8.316    -0.841     0.993     0.165     0.000
   01/01/1998 00:39:00     -8.397    -0.846     0.995     0.165     0.000
   01/01/1998 00:40:00     -8.364    -0.845     0.993     0.165     0.000
   01/01/1998 00:41:00     -7.676    -0.795     0.977     0.161     0.000
   01/01/1998 00:42:00     -5.231    -0.594     0.918     0.147     0.000
   01/01/1998 00:43:00      0.000     0.000     0.848     0.131     0.000
   01/01/1998 00:44:00      0.000     0.000     0.803     0.121     0.000
   01/01/1998 00:45:00      0.000     0.000     0.754     0.110     0.000
   01/01/1998 00:46:00      0.000     0.000     0.707     0.101     0.000
   01/01/1998 00:47:00      0.000     0.000     0.649     0.089     0.000
   01/01/1998 00:48:00      0.000     0.000     0.583     0.077     0.000
   01/01/1998 00:49:00      0.000     0.000     0.520     0.066     0.000
   01/01/1998 00:50:00      0.000     0.000     0.465     0.057     0.000
   01/01/1998 00:51:00      0.000     0.000     0.418     0.049     0.000
   01/01/1998 00:52:00      0.000     0.000     0.376     0.043     0.000
   01/01/1998 00:53:00      0.000     0.000     0.337     0.038     0.000
   01/01/1998 00:54:00      0.000     0.000     0.303     0.033     0.000
   01/01/1998 00:55:00      0.000     0.000     0.274     0.029     0.000
   01/01/1998 00:56:00      0.000     0.000     0.250     0.026     0.000
   01/01/1998 00:57:00      0.000     0.000     0.229     0.023     0.000
   01/01/1998 00:58:00      0.000     0.000     0.208     0.021     0.000
   01/01/1998 00:59:00      0.000     0.000     0.189     0.019     0.000
   01/01/1998 01:00:00      0.000     0.000     0.173     0.017     0.000
  
  
  <<< Link C9 >>>
  --------------------------------------------------------------------------
                             Flow  Velocity     Depth  Capacity/       TSS
  Date        Time            CFS    ft/sec      feet   Setting       MG/L
  --------------------------------------------------------------------------
   01/01/1998 00:01:00      0.000     0.000     0.006     0.000     0.000
   01/01/1998 00:02:00      0.000     0.000     0.046     0.004     0.000
   01/01/1998 00:03:00      0.000     0.000     0.136     0.013     0.000
   01/01/1998 00:04:00      0.000     0.000     0.238     0.024     0.000
   01/01/1998 00:05:00      0.000     0.000     0.320     0.035     0.000
   01/01/1998 00:06:00      0.000     0.000     0.382     0.044     0.000
   01/01/1998 00:07:00      0.000     0.000     0.427     0.051     0.000
   01/01/1998 00:08:00      0.000     0.000     0.457     0.055     0.000
   01/01/1998 00:09:00      0.000     0.000     0.476     0.058     0.000
   01/01/1998 00:10:00      0.000     0.000     0.487     0.060     0.000
   01/01/1998 00:11:00      0.000     0.000     0.497     0.062     0.000
   01/01/1998 00:12:00     -0.172    -0.045     0.511     0.064     0.000
   01/01/1998 00:13:00     -0.443    -0.111     0.525     0.067     0.000
   01/01/1998 00:14:00     -0.483    -0.116     0.539     0.069     0.000
   01/01/1998 00:15:00     -0.474    -0.110     0.555     0.072     0.000
   01/01/1998 00:16:00     -0.838    -0.175     0.599     0.080     0.000
   01/01/1998 00:17:00     -1.873    -0.329     0.678     0.095     0.000
   01/01/1998 00:18:00     -2.784    -0.413     0.764     0.112     0.000
   01/01/1998 00:19:00     -3.466    -0.442     0.848     0.131     0.000
   01/01/1998 00:20:00     -3.856    -0.431     0.927     0.149     0.000
   01/01/1998 00:21:00     -4.355    -0.424     1.017     0.171     0.000
   01/01/1998 00:22:00     -5.403    -0.453     1.123     0.199     0.000
   01/01/1998 00:23:00     -6.088    -0.446     1.226     0.227     0.000
   01/01/1998 00:24:00     -6.065    -0.396     1.320     0.255     0.000
   01/01/1998 00:25:00     -5.404    -0.321     1.403     0.281     0.000
   01/01/1998 00:26:00     -8.014    -0.408     1.543     0.327     0.000
   01/01/1998 00:27:00    -16.566    -0.682     1.761     0.405     0.000
   01/01/1998 00:28:00    -20.175    -0.684     1.980     0.492     0.000
   01/01/1998 00:29:00    -18.486    -0.536     2.172     0.574     0.000
   01/01/1998 00:30:00    -14.622    -0.378     2.327     0.645     0.000
   01/01/1998 00:31:00    -21.397    -0.500     2.469     0.714     0.000
   01/01/1998 00:32:00    -12.092    -0.273     2.516     0.737     0.000
   01/01/1998 00:33:00     -3.290    -0.075     2.504     0.731     0.000
   01/01/1998 00:34:00     -6.941    -0.160     2.484     0.721     0.000
   01/01/1998 00:35:00    -11.083    -0.255     2.492     0.725     0.000
   01/01/1998 00:36:00     -9.005    -0.206     2.501     0.729     0.000
   01/01/1998 00:37:00     -7.229    -0.166     2.497     0.728     0.000
   01/01/1998 00:38:00     -8.248    -0.189     2.493     0.726     0.000
   01/01/1998 00:39:00     -8.975    -0.206     2.494     0.726     0.000
   01/01/1998 00:40:00     -6.956    -0.161     2.485     0.722     0.000
   01/01/1998 00:41:00     -1.205    -0.029     2.432     0.696     0.000
   01/01/1998 00:42:00      9.476     0.246     2.318     0.641     0.000
   01/01/1998 00:43:00      8.265     0.236     2.194     0.584     0.000
   01/01/1998 00:44:00      8.109     0.250     2.094     0.540     0.000
   01/01/1998 00:45:00      8.098     0.270     2.000     0.500     0.000
   01/01/1998 00:46:00      7.702     0.281     1.894     0.457     0.000
   01/01/1998 00:47:00      9.657     0.395     1.768     0.408     0.000
   01/01/1998 00:48:00      9.188     0.426     1.635     0.359     0.000
   01/01/1998 00:49:00      7.643     0.402     1.513     0.317     0.000
   01/01/1998 00:50:00      6.180     0.365     1.407     0.282     0.000
   01/01/1998 00:51:00      5.068     0.334     1.313     0.253     0.000
   01/01/1998 00:52:00      4.448     0.325     1.228     0.228     0.000
   01/01/1998 00:53:00      3.790     0.306     1.152     0.207     0.000
   01/01/1998 00:54:00      3.084     0.271     1.089     0.189     0.000
   01/01/1998 00:55:00      2.441     0.231     1.036     0.176     0.000
   01/01/1998 00:56:00      1.990     0.202     0.989     0.164     0.000
   01/01/1998 00:57:00      1.857     0.202     0.944     0.153     0.000
   01/01/1998 00:58:00      1.697     0.197     0.904     0.143     0.000
   01/01/1998 00:59:00      1.441     0.178     0.869     0.135     0.000
   01/01/1998 01:00:00      1.165     0.151     0.839     0.129     0.000
  
  
  <<< Link C10 >>>
  --------------------------------------------------------------------------
                             Flow  Velocity     Depth  Capacity/       TSS
  Date        Time            CFS    ft/sec      feet   Setting       MG/L
  --------------------------------------------------------------------------
   01/01/1998 00:01:00      0.004     0.051     0.014     0.001     0.000
   01/01/1998 00:02:00      0.178     0.299     0.107     0.010     0.000
   01/01/1998 00:03:00      1.277     0.626     0.311     0.034     0.000
   01/01/1998 00:04:00      3.689     0.876     0.545     0.070     0.000
   01/01/1998 00:05:00      6.736     1.051     0.738     0.107     0.000
   01/01/1998 00:06:00      9.544     1.148     0.883     0.139     0.000
   01/01/1998 00:07:00     12.022     1.215     0.993     0.165     0.000
   01/01/1998 00:08:00     13.835     1.253     1.068     0.184     0.000
   01/01/1998 00:09:00     15.031     1.272     1.116     0.197     0.000
   01/01/1998 00:10:00     15.791     1.283     1.147     0.205     0.000
   01/01/1998 00:11:00     16.485     1.290     1.175     0.213     0.000
   01/01/1998 00:12:00     17.354     1.302     1.207     0.222     0.000
   01/01/1998 00:13:00     17.927     1.306     1.230     0.229     0.000
   01/01/1998 00:14:00     18.366     1.310     1.247     0.234     0.000
   01/01/1998 00:15:00     18.907     1.320     1.265     0.239     0.000
   01/01/1998 00:16:00     21.384     1.364     1.340     0.261     0.000
   01/01/1998 00:17:00     25.715     1.407     1.476     0.305     0.000
   01/01/1998 00:18:00     29.130     1.411     1.593     0.344     0.000
   01/01/1998 00:19:00     31.930     1.411     1.685     0.377     0.000
   01/01/1998 00:20:00     34.199     1.411     1.758     0.404     0.000
   01/01/1998 00:21:00     37.383     1.417     1.851     0.440     0.000
   01/01/1998 00:22:00     41.179     1.410     1.968     0.487     0.000
   01/01/1998 00:23:00     44.419     1.400     2.068     0.529     0.000
   01/01/1998 00:24:00     47.303     1.397     2.150     0.564     0.000
   01/01/1998 00:25:00     50.077     1.402     2.219     0.595     0.000
   01/01/1998 00:26:00     58.265     1.414     2.414     0.687     0.000
   01/01/1998 00:27:00     70.218     1.430     2.673     0.818     0.000
   01/01/1998 00:28:00     78.184     1.494     2.774     0.872     0.000
   01/01/1998 00:29:00     85.921     1.567     2.849     0.914     0.000
   01/01/1998 00:30:00     93.392     1.633     2.919     0.953     0.000
   01/01/1998 00:31:00     88.392     1.473     3.000     1.000     0.000
   01/01/1998 00:32:00     76.337     1.272     3.000     1.000     0.000
   01/01/1998 00:33:00     73.960     1.233     3.000     1.000     0.000
   01/01/1998 00:34:00     73.781     1.230     3.000     1.000     0.000
   01/01/1998 00:35:00     73.704     1.228     3.000     1.000     0.000
   01/01/1998 00:36:00     92.319     1.539     3.000     1.000     0.000
   01/01/1998 00:37:00    102.429     1.707     3.000     1.000     0.000
   01/01/1998 00:38:00    105.073     1.751     3.000     1.000     0.000
   01/01/1998 00:39:00    105.636     1.762     2.999     0.999     0.000
   01/01/1998 00:40:00    104.721     1.754     2.992     0.995     0.000
   01/01/1998 00:41:00    102.320     1.751     2.955     0.974     0.000
   01/01/1998 00:42:00     99.538     1.760     2.900     0.943     0.000
   01/01/1998 00:43:00     94.411     1.725     2.846     0.912     0.000
   01/01/1998 00:44:00     88.767     1.678     2.791     0.882     0.000
   01/01/1998 00:45:00     84.384     1.641     2.746     0.857     0.000
   01/01/1998 00:46:00     78.197     1.594     2.672     0.818     0.000
   01/01/1998 00:47:00     72.065     1.628     2.517     0.738     0.000
   01/01/1998 00:48:00     66.328     1.657     2.373     0.667     0.000
   01/01/1998 00:49:00     60.553     1.664     2.243     0.606     0.000
   01/01/1998 00:50:00     55.443     1.659     2.133     0.557     0.000
   01/01/1998 00:51:00     50.729     1.644     2.034     0.514     0.000
   01/01/1998 00:52:00     46.533     1.632     1.939     0.475     0.000
   01/01/1998 00:53:00     43.163     1.622     1.861     0.444     0.000
   01/01/1998 00:54:00     40.434     1.609     1.797     0.419     0.000
   01/01/1998 00:55:00     38.239     1.596     1.746     0.399     0.000
   01/01/1998 00:56:00     36.123     1.578     1.697     0.381     0.000
   01/01/1998 00:57:00     34.096     1.564     1.647     0.363     0.000
   01/01/1998 00:58:00     32.477     1.555     1.604     0.348     0.000
   01/01/1998 00:59:00     31.160     1.546     1.569     0.336     0.000
   01/01/1998 01:00:00     30.074     1.537     1.541     0.326     0.000
  
  
  <<< Link C11 >>>
  --------------------------------------------------------------------------
                             Flow  Velocity     Depth  Capacity/       TSS
  Date        Time            CFS    ft/sec      feet   Setting       MG/L
  --------------------------------------------------------------------------
   01/01/1998 00:01:00      0.005     0.000     0.009     0.000     0.000
   01/01/1998 00:02:00      0.169     2.106     0.092     0.005     0.000
   01/01/1998 00:03:00      1.784     3.300     0.329     0.031     0.000
   01/01/1998 00:04:00      6.188     4.850     0.592     0.072     0.000
   01/01/1998 00:05:00     12.219     5.993     0.819     0.115     0.000
   01/01/1998 00:06:00     18.127     6.786     0.989     0.151     0.000
   01/01/1998 00:07:00     23.507     7.361     1.121     0.180     0.000
   01/01/1998 00:08:00     27.729     7.749     1.215     0.202     0.000
   01/01/1998 00:09:00     30.732     8.005     1.277     0.217     0.000
   01/01/1998 00:10:00     32.735     8.166     1.317     0.226     0.000
   01/01/1998 00:11:00     34.398     8.279     1.352     0.234     0.000
   01/01/1998 00:12:00     36.412     8.413     1.392     0.244     0.000
   01/01/1998 00:13:00     38.080     8.533     1.423     0.252     0.000
   01/01/1998 00:14:00     39.272     8.611     1.445     0.257     0.000
   01/01/1998 00:15:00     40.366     8.677     1.466     0.263     0.000
   01/01/1998 00:16:00     43.750     8.808     1.537     0.280     0.000
   01/01/1998 00:17:00     52.414     9.251     1.693     0.320     0.000
   01/01/1998 00:18:00     60.652     9.658     1.827     0.354     0.000
   01/01/1998 00:19:00     67.438     9.957     1.932     0.382     0.000
   01/01/1998 00:20:00     72.871    10.180     2.015     0.404     0.000
   01/01/1998 00:21:00     78.899    10.378     2.110     0.429     0.000
   01/01/1998 00:22:00     87.608    10.667     2.239     0.463     0.000
   01/01/1998 00:23:00     95.423    10.917     2.350     0.493     0.000
   01/01/1998 00:24:00    101.738    11.104     2.438     0.517     0.000
   01/01/1998 00:25:00    106.982    11.249     2.512     0.537     0.000
   01/01/1998 00:26:00    118.802    11.442     2.696     0.586     0.000
   01/01/1998 00:27:00    138.379    11.876     2.969     0.658     0.000
   01/01/1998 00:28:00    151.270    12.138     3.148     0.703     0.000
   01/01/1998 00:29:00    160.517    12.280     3.285     0.738     0.000
   01/01/1998 00:30:00    168.396    12.377     3.408     0.768     0.000
   01/01/1998 00:31:00    183.167    12.487     3.665     0.828     0.000
   01/01/1998 00:32:00    184.094    12.545     3.666     0.828     0.000
   01/01/1998 00:33:00    184.706    12.551     3.677     0.830     0.000
   01/01/1998 00:34:00    184.723    12.550     3.677     0.831     0.000
   01/01/1998 00:35:00    184.725    12.550     3.677     0.831     0.000
   01/01/1998 00:36:00    178.794    12.511     3.571     0.806     0.000
   01/01/1998 00:37:00    177.996    12.505     3.558     0.803     0.000
   01/01/1998 00:38:00    177.424    12.500     3.548     0.801     0.000
   01/01/1998 00:39:00    177.256    12.498     3.545     0.800     0.000
   01/01/1998 00:40:00    176.523    12.491     3.533     0.797     0.000
   01/01/1998 00:41:00    172.095    12.449     3.459     0.780     0.000
   01/01/1998 00:42:00    165.213    12.375     3.349     0.753     0.000
   01/01/1998 00:43:00    159.384    12.305     3.258     0.731     0.000
   01/01/1998 00:44:00    152.788    12.210     3.159     0.706     0.000
   01/01/1998 00:45:00    147.323    12.124     3.079     0.686     0.000
   01/01/1998 00:46:00    140.020    11.996     2.974     0.659     0.000
   01/01/1998 00:47:00    128.025    11.766     2.803     0.614     0.000
   01/01/1998 00:48:00    116.895    11.523     2.646     0.572     0.000
   01/01/1998 00:49:00    106.885    11.280     2.505     0.535     0.000
   01/01/1998 00:50:00     98.471    11.057     2.385     0.503     0.000
   01/01/1998 00:51:00     91.199    10.845     2.280     0.475     0.000
   01/01/1998 00:52:00     84.210    10.626     2.178     0.447     0.000
   01/01/1998 00:53:00     78.440    10.431     2.092     0.424     0.000
   01/01/1998 00:54:00     73.917    10.266     2.024     0.406     0.000
   01/01/1998 00:55:00     70.275    10.127     1.968     0.392     0.000
   01/01/1998 00:56:00     67.114    10.004     1.919     0.379     0.000
   01/01/1998 00:57:00     63.686     9.864     1.865     0.364     0.000
   01/01/1998 00:58:00     60.754     9.740     1.817     0.352     0.000
   01/01/1998 00:59:00     58.416     9.635     1.779     0.342     0.000
   01/01/1998 01:00:00     56.517     9.549     1.748     0.334     0.000
  

  Analysis begun on:  Fri Apr  4 01:09:17 2025
  Analysis ended on:  Fri Apr  4 01:09:17 2025
  Total elapsed time: < 1 sec